<?xml version="1.0" encoding="UTF-8"?>

<!-- generated on 2023-10-16 13:38:18 by Eclipse SUMO GUI Version 1.12.0
-->

<configuration xmlns:xsi="http://www.w3.org/2001/XMLSchema-instance" xsi:noNamespaceSchemaLocation="http://sumo.dlr.de/xsd/sumoConfiguration.xsd">

    <input>
        <net-file value="/home/rosen902/test.net.xml"/>
        <route-files value="/home/rosen902/test.rou.xml"/>
    </input>

</configuration>
