<routes>
	<vType id="car" accel="1.0" decel="5.0" length="4.0" minGap="2.5" maxSpeed="50.0" sigma="0.5"/>
	<route id="ns" edges="E2 E3 "/>
	<route id="nw" edges="E2 -E0 "/>
	<route id="sn" edges="-E3 -E2 "/>
	<route id="se" edges="-E3 E1 "/>
	<route id="ew" edges="-E1 -E0 "/>
	<route id="en" edges="-E1 -E2 "/>
	<route id="we" edges="E0 E1 "/>
	<route id="ws" edges="E0 E3 "/>
	<vehicle depart="8" id="veh6_1" route="we" type="car" color="1,0,0"/>
	<vehicle depart="9" id="veh4_9" route="ew" type="car" color="1,0,0"/>
	<vehicle depart="33" id="veh5_0" route="en" type="car" color="1,0,0"/>
	<vehicle depart="42" id="veh4_6" route="ew" type="car" color="1,0,0"/>
	<vehicle depart="53" id="veh6_8" route="we" type="car" color="1,0,0"/>
	<vehicle depart="65" id="veh4_2" route="ew" type="car" color="1,0,0"/>
	<vehicle depart="79" id="veh2_8" route="sn" type="car" color="1,0,0"/>
	<vehicle depart="83" id="veh0_9" route="ns" type="car" color="1,0,0"/>
	<vehicle depart="90" id="veh2_0" route="sn" type="car" color="1,0,0"/>
	<vehicle depart="90" id="veh3_0" route="se" type="car" color="1,0,0"/>
	<vehicle depart="91" id="veh6_0" route="we" type="car" color="1,0,0"/>
	<vehicle depart="92" id="veh2_9" route="sn" type="car" color="1,0,0"/>
	<vehicle depart="94" id="veh5_5" route="en" type="car" color="1,0,0"/>
	<vehicle depart="106" id="veh6_5" route="we" type="car" color="1,0,0"/>
	<vehicle depart="112" id="veh0_4" route="ns" type="car" color="1,0,0"/>
	<vehicle depart="113" id="veh1_3" route="nw" type="car" color="1,0,0"/>
	<vehicle depart="120" id="veh5_2" route="en" type="car" color="1,0,0"/>
	<vehicle depart="124" id="veh5_4" route="en" type="car" color="1,0,0"/>
	<vehicle depart="130" id="veh5_9" route="en" type="car" color="1,0,0"/>
	<vehicle depart="169" id="veh1_6" route="nw" type="car" color="1,0,0"/>
	<vehicle depart="176" id="veh3_3" route="se" type="car" color="1,0,0"/>
	<vehicle depart="199" id="veh2_3" route="sn" type="car" color="1,0,0"/>
	<vehicle depart="204" id="veh2_4" route="sn" type="car" color="1,0,0"/>
	<vehicle depart="209" id="veh5_1" route="en" type="car" color="1,0,0"/>
	<vehicle depart="228" id="veh1_7" route="nw" type="car" color="1,0,0"/>
	<vehicle depart="228" id="veh7_0" route="ws" type="car" color="1,0,0"/>
	<vehicle depart="239" id="veh2_6" route="sn" type="car" color="1,0,0"/>
	<vehicle depart="246" id="veh1_2" route="nw" type="car" color="1,0,0"/>
	<vehicle depart="251" id="veh0_8" route="ns" type="car" color="1,0,0"/>
	<vehicle depart="251" id="veh2_5" route="sn" type="car" color="1,0,0"/>
	<vehicle depart="252" id="veh6_9" route="we" type="car" color="1,0,0"/>
	<vehicle depart="256" id="veh0_2" route="ns" type="car" color="1,0,0"/>
	<vehicle depart="260" id="veh5_8" route="en" type="car" color="1,0,0"/>
	<vehicle depart="262" id="veh6_7" route="we" type="car" color="1,0,0"/>
	<vehicle depart="264" id="veh1_4" route="nw" type="car" color="1,0,0"/>
	<vehicle depart="267" id="veh0_6" route="ns" type="car" color="1,0,0"/>
	<vehicle depart="273" id="veh7_4" route="ws" type="car" color="1,0,0"/>
	<vehicle depart="284" id="veh3_7" route="se" type="car" color="1,0,0"/>
	<vehicle depart="286" id="veh7_5" route="ws" type="car" color="1,0,0"/>
	<vehicle depart="287" id="veh7_8" route="ws" type="car" color="1,0,0"/>
	<vehicle depart="288" id="veh1_0" route="nw" type="car" color="1,0,0"/>
	<vehicle depart="288" id="veh6_3" route="we" type="car" color="1,0,0"/>
	<vehicle depart="291" id="veh1_9" route="nw" type="car" color="1,0,0"/>
	<vehicle depart="320" id="veh2_1" route="sn" type="car" color="1,0,0"/>
	<vehicle depart="320" id="veh3_5" route="se" type="car" color="1,0,0"/>
	<vehicle depart="323" id="veh0_7" route="ns" type="car" color="1,0,0"/>
	<vehicle depart="334" id="veh4_7" route="ew" type="car" color="1,0,0"/>
	<vehicle depart="342" id="veh5_7" route="en" type="car" color="1,0,0"/>
	<vehicle depart="354" id="veh0_1" route="ns" type="car" color="1,0,0"/>
	<vehicle depart="355" id="veh0_5" route="ns" type="car" color="1,0,0"/>
	<vehicle depart="370" id="veh7_7" route="ws" type="car" color="1,0,0"/>
	<vehicle depart="381" id="veh7_6" route="ws" type="car" color="1,0,0"/>
	<vehicle depart="384" id="veh7_2" route="ws" type="car" color="1,0,0"/>
	<vehicle depart="402" id="veh4_1" route="ew" type="car" color="1,0,0"/>
	<vehicle depart="411" id="veh6_4" route="we" type="car" color="1,0,0"/>
	<vehicle depart="414" id="veh0_3" route="ns" type="car" color="1,0,0"/>
	<vehicle depart="419" id="veh3_2" route="se" type="car" color="1,0,0"/>
	<vehicle depart="434" id="veh6_2" route="we" type="car" color="1,0,0"/>
	<vehicle depart="440" id="veh3_9" route="se" type="car" color="1,0,0"/>
	<vehicle depart="440" id="veh4_5" route="ew" type="car" color="1,0,0"/>
	<vehicle depart="443" id="veh3_4" route="se" type="car" color="1,0,0"/>
	<vehicle depart="444" id="veh4_0" route="ew" type="car" color="1,0,0"/>
	<vehicle depart="446" id="veh3_8" route="se" type="car" color="1,0,0"/>
	<vehicle depart="449" id="veh1_1" route="nw" type="car" color="1,0,0"/>
	<vehicle depart="462" id="veh4_4" route="ew" type="car" color="1,0,0"/>
	<vehicle depart="474" id="veh1_5" route="nw" type="car" color="1,0,0"/>
	<vehicle depart="474" id="veh7_9" route="ws" type="car" color="1,0,0"/>
	<vehicle depart="485" id="veh4_8" route="ew" type="car" color="1,0,0"/>
	<vehicle depart="492" id="veh0_0" route="ns" type="car" color="1,0,0"/>
	<vehicle depart="505" id="veh1_8" route="nw" type="car" color="1,0,0"/>
	<vehicle depart="506" id="veh2_7" route="sn" type="car" color="1,0,0"/>
	<vehicle depart="522" id="veh3_1" route="se" type="car" color="1,0,0"/>
	<vehicle depart="531" id="veh7_3" route="ws" type="car" color="1,0,0"/>
	<vehicle depart="534" id="veh5_6" route="en" type="car" color="1,0,0"/>
	<vehicle depart="549" id="veh4_3" route="ew" type="car" color="1,0,0"/>
	<vehicle depart="560" id="veh3_6" route="se" type="car" color="1,0,0"/>
	<vehicle depart="567" id="veh5_3" route="en" type="car" color="1,0,0"/>
	<vehicle depart="571" id="veh7_1" route="ws" type="car" color="1,0,0"/>
	<vehicle depart="586" id="veh2_2" route="sn" type="car" color="1,0,0"/>
	<vehicle depart="587" id="veh6_6" route="we" type="car" color="1,0,0"/>
</routes>
