<routes>
	<vType id="car" accel="1.0" decel="5.0" length="4.0" minGap="2.5" maxSpeed="50.0" sigma="0.5"/>
	<route id="trajetNS" edges="E0 E1 "/>
	<route id="trajetSN" edges="-E1 -E0 "/>
	<route id="trajetEW" edges="-E3 -E2 "/>
	<route id="trajetWE" edges="E2 E3 "/>
	<vehicle depart="1002" id="veh5" route="trajetEW" type="car" color="1,0,0"/>
	<vehicle depart="1141" id="veh0" route="trajetWE" type="car" color="1,0,0"/>
	<vehicle depart="1168" id="veh3" route="trajetEW" type="car" color="1,0,0"/>
	<vehicle depart="1192" id="veh10" route="trajetEW" type="car" color="1,0,0"/>
	<vehicle depart="1239" id="veh11" route="trajetEW" type="car" color="1,0,0"/>
	<vehicle depart="1282" id="veh4" route="trajetWE" type="car" color="1,0,0"/>
	<vehicle depart="1283" id="veh16" route="trajetNS" type="car" color="1,0,0"/>
	<vehicle depart="1316" id="veh20" route="trajetSN" type="car" color="1,0,0"/>
	<vehicle depart="1499" id="veh4" route="trajetNS" type="car" color="1,0,0"/>
	<vehicle depart="1525" id="veh1" route="trajetNS" type="car" color="1,0,0"/>
	<vehicle depart="1709" id="veh2" route="trajetSN" type="car" color="1,0,0"/>
	<vehicle depart="2202" id="veh1" route="trajetEW" type="car" color="1,0,0"/>
	<vehicle depart="2365" id="veh22" route="trajetSN" type="car" color="1,0,0"/>
	<vehicle depart="2507" id="veh18" route="trajetEW" type="car" color="1,0,0"/>
	<vehicle depart="2584" id="veh9" route="trajetNS" type="car" color="1,0,0"/>
	<vehicle depart="2639" id="veh10" route="trajetNS" type="car" color="1,0,0"/>
	<vehicle depart="2658" id="veh5" route="trajetNS" type="car" color="1,0,0"/>
	<vehicle depart="2849" id="veh15" route="trajetEW" type="car" color="1,0,0"/>
	<vehicle depart="3016" id="veh12" route="trajetNS" type="car" color="1,0,0"/>
	<vehicle depart="3168" id="veh6" route="trajetWE" type="car" color="1,0,0"/>
	<vehicle depart="3226" id="veh11" route="trajetSN" type="car" color="1,0,0"/>
	<vehicle depart="3448" id="veh15" route="trajetNS" type="car" color="1,0,0"/>
	<vehicle depart="3450" id="veh14" route="trajetEW" type="car" color="1,0,0"/>
	<vehicle depart="3464" id="veh14" route="trajetSN" type="car" color="1,0,0"/>
	<vehicle depart="3522" id="veh20" route="trajetWE" type="car" color="1,0,0"/>
	<vehicle depart="3547" id="veh8" route="trajetNS" type="car" color="1,0,0"/>
	<vehicle depart="3643" id="veh8" route="trajetSN" type="car" color="1,0,0"/>
	<vehicle depart="3721" id="veh24" route="trajetNS" type="car" color="1,0,0"/>
	<vehicle depart="3724" id="veh21" route="trajetNS" type="car" color="1,0,0"/>
	<vehicle depart="3822" id="veh14" route="trajetWE" type="car" color="1,0,0"/>
	<vehicle depart="3951" id="veh0" route="trajetEW" type="car" color="1,0,0"/>
	<vehicle depart="3960" id="veh9" route="trajetSN" type="car" color="1,0,0"/>
	<vehicle depart="3981" id="veh7" route="trajetNS" type="car" color="1,0,0"/>
	<vehicle depart="3990" id="veh7" route="trajetWE" type="car" color="1,0,0"/>
	<vehicle depart="4011" id="veh12" route="trajetSN" type="car" color="1,0,0"/>
	<vehicle depart="4048" id="veh2" route="trajetNS" type="car" color="1,0,0"/>
	<vehicle depart="4103" id="veh12" route="trajetEW" type="car" color="1,0,0"/>
	<vehicle depart="4170" id="veh1" route="trajetWE" type="car" color="1,0,0"/>
	<vehicle depart="4288" id="veh5" route="trajetWE" type="car" color="1,0,0"/>
	<vehicle depart="4293" id="veh14" route="trajetNS" type="car" color="1,0,0"/>
	<vehicle depart="4543" id="veh5" route="trajetSN" type="car" color="1,0,0"/>
	<vehicle depart="4627" id="veh9" route="trajetEW" type="car" color="1,0,0"/>
	<vehicle depart="5079" id="veh13" route="trajetNS" type="car" color="1,0,0"/>
	<vehicle depart="5172" id="veh0" route="trajetNS" type="car" color="1,0,0"/>
	<vehicle depart="5224" id="veh18" route="trajetSN" type="car" color="1,0,0"/>
	<vehicle depart="5233" id="veh10" route="trajetSN" type="car" color="1,0,0"/>
	<vehicle depart="5357" id="veh3" route="trajetWE" type="car" color="1,0,0"/>
	<vehicle depart="5395" id="veh22" route="trajetWE" type="car" color="1,0,0"/>
	<vehicle depart="5430" id="veh7" route="trajetEW" type="car" color="1,0,0"/>
	<vehicle depart="5446" id="veh11" route="trajetNS" type="car" color="1,0,0"/>
	<vehicle depart="5528" id="veh13" route="trajetWE" type="car" color="1,0,0"/>
	<vehicle depart="5571" id="veh8" route="trajetEW" type="car" color="1,0,0"/>
	<vehicle depart="5632" id="veh21" route="trajetWE" type="car" color="1,0,0"/>
	<vehicle depart="5653" id="veh16" route="trajetEW" type="car" color="1,0,0"/>
	<vehicle depart="5726" id="veh19" route="trajetWE" type="car" color="1,0,0"/>
	<vehicle depart="6133" id="veh23" route="trajetNS" type="car" color="1,0,0"/>
	<vehicle depart="6291" id="veh13" route="trajetSN" type="car" color="1,0,0"/>
	<vehicle depart="6437" id="veh17" route="trajetWE" type="car" color="1,0,0"/>
	<vehicle depart="6471" id="veh23" route="trajetEW" type="car" color="1,0,0"/>
	<vehicle depart="6474" id="veh24" route="trajetEW" type="car" color="1,0,0"/>
	<vehicle depart="6508" id="veh21" route="trajetSN" type="car" color="1,0,0"/>
	<vehicle depart="6576" id="veh9" route="trajetWE" type="car" color="1,0,0"/>
	<vehicle depart="6604" id="veh22" route="trajetEW" type="car" color="1,0,0"/>
	<vehicle depart="6813" id="veh17" route="trajetEW" type="car" color="1,0,0"/>
	<vehicle depart="6904" id="veh3" route="trajetSN" type="car" color="1,0,0"/>
	<vehicle depart="6921" id="veh11" route="trajetWE" type="car" color="1,0,0"/>
	<vehicle depart="7012" id="veh10" route="trajetWE" type="car" color="1,0,0"/>
	<vehicle depart="7046" id="veh6" route="trajetSN" type="car" color="1,0,0"/>
	<vehicle depart="7065" id="veh19" route="trajetEW" type="car" color="1,0,0"/>
	<vehicle depart="7080" id="veh16" route="trajetSN" type="car" color="1,0,0"/>
	<vehicle depart="7090" id="veh0" route="trajetSN" type="car" color="1,0,0"/>
	<vehicle depart="7097" id="veh23" route="trajetWE" type="car" color="1,0,0"/>
	<vehicle depart="7149" id="veh3" route="trajetNS" type="car" color="1,0,0"/>
	<vehicle depart="7523" id="veh8" route="trajetWE" type="car" color="1,0,0"/>
	<vehicle depart="7779" id="veh18" route="trajetWE" type="car" color="1,0,0"/>
	<vehicle depart="8029" id="veh7" route="trajetSN" type="car" color="1,0,0"/>
	<vehicle depart="8135" id="veh24" route="trajetSN" type="car" color="1,0,0"/>
	<vehicle depart="8288" id="veh19" route="trajetNS" type="car" color="1,0,0"/>
	<vehicle depart="8308" id="veh23" route="trajetSN" type="car" color="1,0,0"/>
	<vehicle depart="8408" id="veh19" route="trajetSN" type="car" color="1,0,0"/>
	<vehicle depart="8419" id="veh1" route="trajetSN" type="car" color="1,0,0"/>
	<vehicle depart="8448" id="veh4" route="trajetSN" type="car" color="1,0,0"/>
	<vehicle depart="8651" id="veh12" route="trajetWE" type="car" color="1,0,0"/>
	<vehicle depart="8657" id="veh2" route="trajetWE" type="car" color="1,0,0"/>
	<vehicle depart="8738" id="veh13" route="trajetEW" type="car" color="1,0,0"/>
	<vehicle depart="8836" id="veh15" route="trajetWE" type="car" color="1,0,0"/>
	<vehicle depart="8850" id="veh20" route="trajetEW" type="car" color="1,0,0"/>
	<vehicle depart="8872" id="veh22" route="trajetNS" type="car" color="1,0,0"/>
	<vehicle depart="8874" id="veh20" route="trajetNS" type="car" color="1,0,0"/>
	<vehicle depart="8892" id="veh18" route="trajetNS" type="car" color="1,0,0"/>
	<vehicle depart="9060" id="veh4" route="trajetEW" type="car" color="1,0,0"/>
	<vehicle depart="9066" id="veh21" route="trajetEW" type="car" color="1,0,0"/>
	<vehicle depart="9373" id="veh17" route="trajetNS" type="car" color="1,0,0"/>
	<vehicle depart="9385" id="veh2" route="trajetEW" type="car" color="1,0,0"/>
	<vehicle depart="9627" id="veh6" route="trajetEW" type="car" color="1,0,0"/>
	<vehicle depart="9687" id="veh24" route="trajetWE" type="car" color="1,0,0"/>
	<vehicle depart="9902" id="veh16" route="trajetWE" type="car" color="1,0,0"/>
	<vehicle depart="9914" id="veh17" route="trajetSN" type="car" color="1,0,0"/>
	<vehicle depart="9947" id="veh15" route="trajetSN" type="car" color="1,0,0"/>
	<vehicle depart="9988" id="veh6" route="trajetNS" type="car" color="1,0,0"/>
</routes>
