<routes>
	<vType id="car" accel="1.0" decel="5.0" length="4.0" minGap="2.5" maxSpeed="50.0" sigma="0.5"/>
	<route id="ns1" edges="-E5 E6 "/>
	<route id="sn1" edges="-E6 E5 "/>
	<route id="ns2" edges="E3 E4 "/>
	<route id="sn2" edges="-E4 -E3 "/>
	<route id="ew" edges="-E2 -E1 -E0 "/>
	<route id="we" edges="E0 E1 E2 "/>
	<vehicle depart="16" id="veh1_39" route="sn1" type="car" color="1,0,0"/>
	<vehicle depart="20" id="veh1_81" route="sn1" type="car" color="1,0,0"/>
	<vehicle depart="41" id="veh1_59" route="sn1" type="car" color="1,0,0"/>
	<vehicle depart="43" id="veh1_79" route="sn1" type="car" color="1,0,0"/>
	<vehicle depart="44" id="veh1_40" route="sn1" type="car" color="1,0,0"/>
	<vehicle depart="59" id="veh1_11" route="sn1" type="car" color="1,0,0"/>
	<vehicle depart="59" id="veh1_55" route="sn1" type="car" color="1,0,0"/>
	<vehicle depart="68" id="veh1_98" route="sn1" type="car" color="1,0,0"/>
	<vehicle depart="73" id="veh1_12" route="sn1" type="car" color="1,0,0"/>
	<vehicle depart="75" id="veh1_70" route="sn1" type="car" color="1,0,0"/>
	<vehicle depart="88" id="veh1_51" route="sn1" type="car" color="1,0,0"/>
	<vehicle depart="95" id="veh1_25" route="sn1" type="car" color="1,0,0"/>
	<vehicle depart="110" id="veh1_50" route="sn1" type="car" color="1,0,0"/>
	<vehicle depart="116" id="veh1_2" route="sn1" type="car" color="1,0,0"/>
	<vehicle depart="118" id="veh1_10" route="sn1" type="car" color="1,0,0"/>
	<vehicle depart="124" id="veh1_69" route="sn1" type="car" color="1,0,0"/>
	<vehicle depart="127" id="veh1_66" route="sn1" type="car" color="1,0,0"/>
	<vehicle depart="133" id="veh1_56" route="sn1" type="car" color="1,0,0"/>
	<vehicle depart="137" id="veh1_63" route="sn1" type="car" color="1,0,0"/>
	<vehicle depart="137" id="veh1_65" route="sn1" type="car" color="1,0,0"/>
	<vehicle depart="142" id="veh1_74" route="sn1" type="car" color="1,0,0"/>
	<vehicle depart="149" id="veh1_13" route="sn1" type="car" color="1,0,0"/>
	<vehicle depart="149" id="veh1_17" route="sn1" type="car" color="1,0,0"/>
	<vehicle depart="150" id="veh1_73" route="sn1" type="car" color="1,0,0"/>
	<vehicle depart="167" id="veh1_95" route="sn1" type="car" color="1,0,0"/>
	<vehicle depart="184" id="veh1_92" route="sn1" type="car" color="1,0,0"/>
	<vehicle depart="187" id="veh1_97" route="sn1" type="car" color="1,0,0"/>
	<vehicle depart="188" id="veh1_80" route="sn1" type="car" color="1,0,0"/>
	<vehicle depart="200" id="veh1_35" route="sn1" type="car" color="1,0,0"/>
	<vehicle depart="207" id="veh1_46" route="sn1" type="car" color="1,0,0"/>
	<vehicle depart="209" id="veh1_76" route="sn1" type="car" color="1,0,0"/>
	<vehicle depart="222" id="veh1_5" route="sn1" type="car" color="1,0,0"/>
	<vehicle depart="233" id="veh1_72" route="sn1" type="car" color="1,0,0"/>
	<vehicle depart="236" id="veh1_21" route="sn1" type="car" color="1,0,0"/>
	<vehicle depart="238" id="veh1_38" route="sn1" type="car" color="1,0,0"/>
	<vehicle depart="240" id="veh1_62" route="sn1" type="car" color="1,0,0"/>
	<vehicle depart="254" id="veh1_82" route="sn1" type="car" color="1,0,0"/>
	<vehicle depart="263" id="veh1_84" route="sn1" type="car" color="1,0,0"/>
	<vehicle depart="272" id="veh1_96" route="sn1" type="car" color="1,0,0"/>
	<vehicle depart="275" id="veh1_7" route="sn1" type="car" color="1,0,0"/>
	<vehicle depart="286" id="veh1_49" route="sn1" type="car" color="1,0,0"/>
	<vehicle depart="289" id="veh1_36" route="sn1" type="car" color="1,0,0"/>
	<vehicle depart="293" id="veh1_64" route="sn1" type="car" color="1,0,0"/>
	<vehicle depart="295" id="veh1_33" route="sn1" type="car" color="1,0,0"/>
	<vehicle depart="296" id="veh1_6" route="sn1" type="car" color="1,0,0"/>
	<vehicle depart="296" id="veh1_19" route="sn1" type="car" color="1,0,0"/>
	<vehicle depart="296" id="veh1_83" route="sn1" type="car" color="1,0,0"/>
	<vehicle depart="298" id="veh1_34" route="sn1" type="car" color="1,0,0"/>
	<vehicle depart="301" id="veh1_75" route="sn1" type="car" color="1,0,0"/>
	<vehicle depart="309" id="veh1_15" route="sn1" type="car" color="1,0,0"/>
	<vehicle depart="312" id="veh1_18" route="sn1" type="car" color="1,0,0"/>
	<vehicle depart="313" id="veh1_26" route="sn1" type="car" color="1,0,0"/>
	<vehicle depart="338" id="veh1_31" route="sn1" type="car" color="1,0,0"/>
	<vehicle depart="339" id="veh1_85" route="sn1" type="car" color="1,0,0"/>
	<vehicle depart="345" id="veh1_42" route="sn1" type="car" color="1,0,0"/>
	<vehicle depart="346" id="veh1_99" route="sn1" type="car" color="1,0,0"/>
	<vehicle depart="347" id="veh1_48" route="sn1" type="car" color="1,0,0"/>
	<vehicle depart="350" id="veh1_14" route="sn1" type="car" color="1,0,0"/>
	<vehicle depart="367" id="veh1_67" route="sn1" type="car" color="1,0,0"/>
	<vehicle depart="375" id="veh1_47" route="sn1" type="car" color="1,0,0"/>
	<vehicle depart="390" id="veh1_1" route="sn1" type="car" color="1,0,0"/>
	<vehicle depart="393" id="veh1_24" route="sn1" type="car" color="1,0,0"/>
	<vehicle depart="396" id="veh1_3" route="sn1" type="car" color="1,0,0"/>
	<vehicle depart="396" id="veh1_78" route="sn1" type="car" color="1,0,0"/>
	<vehicle depart="403" id="veh1_86" route="sn1" type="car" color="1,0,0"/>
	<vehicle depart="405" id="veh1_52" route="sn1" type="car" color="1,0,0"/>
	<vehicle depart="406" id="veh1_94" route="sn1" type="car" color="1,0,0"/>
	<vehicle depart="416" id="veh1_9" route="sn1" type="car" color="1,0,0"/>
	<vehicle depart="420" id="veh1_29" route="sn1" type="car" color="1,0,0"/>
	<vehicle depart="424" id="veh1_60" route="sn1" type="car" color="1,0,0"/>
	<vehicle depart="425" id="veh1_20" route="sn1" type="car" color="1,0,0"/>
	<vehicle depart="426" id="veh1_28" route="sn1" type="car" color="1,0,0"/>
	<vehicle depart="435" id="veh1_77" route="sn1" type="car" color="1,0,0"/>
	<vehicle depart="446" id="veh1_44" route="sn1" type="car" color="1,0,0"/>
	<vehicle depart="446" id="veh1_91" route="sn1" type="car" color="1,0,0"/>
	<vehicle depart="448" id="veh1_37" route="sn1" type="car" color="1,0,0"/>
	<vehicle depart="451" id="veh1_68" route="sn1" type="car" color="1,0,0"/>
	<vehicle depart="455" id="veh1_54" route="sn1" type="car" color="1,0,0"/>
	<vehicle depart="458" id="veh1_88" route="sn1" type="car" color="1,0,0"/>
	<vehicle depart="464" id="veh1_8" route="sn1" type="car" color="1,0,0"/>
	<vehicle depart="470" id="veh1_87" route="sn1" type="car" color="1,0,0"/>
	<vehicle depart="475" id="veh1_90" route="sn1" type="car" color="1,0,0"/>
	<vehicle depart="477" id="veh1_27" route="sn1" type="car" color="1,0,0"/>
	<vehicle depart="489" id="veh1_57" route="sn1" type="car" color="1,0,0"/>
	<vehicle depart="516" id="veh1_45" route="sn1" type="car" color="1,0,0"/>
	<vehicle depart="527" id="veh1_61" route="sn1" type="car" color="1,0,0"/>
	<vehicle depart="530" id="veh1_30" route="sn1" type="car" color="1,0,0"/>
	<vehicle depart="535" id="veh1_93" route="sn1" type="car" color="1,0,0"/>
	<vehicle depart="551" id="veh1_43" route="sn1" type="car" color="1,0,0"/>
	<vehicle depart="557" id="veh1_16" route="sn1" type="car" color="1,0,0"/>
	<vehicle depart="557" id="veh1_58" route="sn1" type="car" color="1,0,0"/>
	<vehicle depart="565" id="veh1_22" route="sn1" type="car" color="1,0,0"/>
	<vehicle depart="566" id="veh1_53" route="sn1" type="car" color="1,0,0"/>
	<vehicle depart="583" id="veh1_4" route="sn1" type="car" color="1,0,0"/>
	<vehicle depart="589" id="veh1_23" route="sn1" type="car" color="1,0,0"/>
	<vehicle depart="589" id="veh1_41" route="sn1" type="car" color="1,0,0"/>
	<vehicle depart="589" id="veh1_89" route="sn1" type="car" color="1,0,0"/>
	<vehicle depart="596" id="veh1_71" route="sn1" type="car" color="1,0,0"/>
	<vehicle depart="597" id="veh1_32" route="sn1" type="car" color="1,0,0"/>
	<vehicle depart="598" id="veh1_0" route="sn1" type="car" color="1,0,0"/>
</routes>
