<routes>
	<vType id="car" accel="1.0" decel="5.0" length="4.0" minGap="2.5" maxSpeed="50.0" sigma="0.5"/>
	<route id="ns1" edges="E2 E3 "/>
	<route id="ns2" edges="E4 E5 "/>
	<route id="sn1" edges="-E3 -E2 "/>
	<route id="sn2" edges="-E5 -E4 "/>
	<route id="ew" edges="E6 -E1 -E0 "/>
	<route id="we" edges="E0 E1 -E6 "/>
	<vehicle depart="3" id="veh5_21" route="we" type="car" color="1,0,0"/>
	<vehicle depart="8" id="veh4_14" route="ew" type="car" color="1,0,0"/>
	<vehicle depart="13" id="veh4_47" route="ew" type="car" color="1,0,0"/>
	<vehicle depart="16" id="veh2_6" route="sn1" type="car" color="1,0,0"/>
	<vehicle depart="20" id="veh4_26" route="ew" type="car" color="1,0,0"/>
	<vehicle depart="21" id="veh5_15" route="we" type="car" color="1,0,0"/>
	<vehicle depart="26" id="veh4_45" route="ew" type="car" color="1,0,0"/>
	<vehicle depart="26" id="veh5_20" route="we" type="car" color="1,0,0"/>
	<vehicle depart="27" id="veh0_5" route="ns1" type="car" color="1,0,0"/>
	<vehicle depart="28" id="veh4_49" route="ew" type="car" color="1,0,0"/>
	<vehicle depart="29" id="veh4_34" route="ew" type="car" color="1,0,0"/>
	<vehicle depart="29" id="veh5_43" route="we" type="car" color="1,0,0"/>
	<vehicle depart="36" id="veh1_9" route="ns2" type="car" color="1,0,0"/>
	<vehicle depart="37" id="veh5_18" route="we" type="car" color="1,0,0"/>
	<vehicle depart="38" id="veh4_15" route="ew" type="car" color="1,0,0"/>
	<vehicle depart="45" id="veh5_44" route="we" type="car" color="1,0,0"/>
	<vehicle depart="54" id="veh4_38" route="ew" type="car" color="1,0,0"/>
	<vehicle depart="55" id="veh3_5" route="sn2" type="car" color="1,0,0"/>
	<vehicle depart="61" id="veh4_13" route="ew" type="car" color="1,0,0"/>
	<vehicle depart="64" id="veh4_48" route="ew" type="car" color="1,0,0"/>
	<vehicle depart="68" id="veh1_1" route="ns2" type="car" color="1,0,0"/>
	<vehicle depart="69" id="veh5_14" route="we" type="car" color="1,0,0"/>
	<vehicle depart="73" id="veh2_7" route="sn1" type="car" color="1,0,0"/>
	<vehicle depart="75" id="veh5_7" route="we" type="car" color="1,0,0"/>
	<vehicle depart="77" id="veh5_38" route="we" type="car" color="1,0,0"/>
	<vehicle depart="78" id="veh1_3" route="ns2" type="car" color="1,0,0"/>
	<vehicle depart="78" id="veh4_17" route="ew" type="car" color="1,0,0"/>
	<vehicle depart="80" id="veh4_20" route="ew" type="car" color="1,0,0"/>
	<vehicle depart="89" id="veh2_8" route="sn1" type="car" color="1,0,0"/>
	<vehicle depart="89" id="veh3_4" route="sn2" type="car" color="1,0,0"/>
	<vehicle depart="110" id="veh5_13" route="we" type="car" color="1,0,0"/>
	<vehicle depart="112" id="veh5_3" route="we" type="car" color="1,0,0"/>
	<vehicle depart="113" id="veh5_22" route="we" type="car" color="1,0,0"/>
	<vehicle depart="116" id="veh0_0" route="ns1" type="car" color="1,0,0"/>
	<vehicle depart="116" id="veh5_41" route="we" type="car" color="1,0,0"/>
	<vehicle depart="123" id="veh5_6" route="we" type="car" color="1,0,0"/>
	<vehicle depart="123" id="veh5_28" route="we" type="car" color="1,0,0"/>
	<vehicle depart="127" id="veh1_8" route="ns2" type="car" color="1,0,0"/>
	<vehicle depart="130" id="veh4_36" route="ew" type="car" color="1,0,0"/>
	<vehicle depart="133" id="veh4_29" route="ew" type="car" color="1,0,0"/>
	<vehicle depart="137" id="veh5_10" route="we" type="car" color="1,0,0"/>
	<vehicle depart="138" id="veh0_2" route="ns1" type="car" color="1,0,0"/>
	<vehicle depart="140" id="veh4_35" route="ew" type="car" color="1,0,0"/>
	<vehicle depart="142" id="veh5_47" route="we" type="car" color="1,0,0"/>
	<vehicle depart="143" id="veh0_3" route="ns1" type="car" color="1,0,0"/>
	<vehicle depart="146" id="veh5_37" route="we" type="car" color="1,0,0"/>
	<vehicle depart="152" id="veh4_0" route="ew" type="car" color="1,0,0"/>
	<vehicle depart="156" id="veh4_21" route="ew" type="car" color="1,0,0"/>
	<vehicle depart="161" id="veh4_39" route="ew" type="car" color="1,0,0"/>
	<vehicle depart="163" id="veh3_3" route="sn2" type="car" color="1,0,0"/>
	<vehicle depart="164" id="veh5_2" route="we" type="car" color="1,0,0"/>
	<vehicle depart="165" id="veh1_5" route="ns2" type="car" color="1,0,0"/>
	<vehicle depart="166" id="veh5_19" route="we" type="car" color="1,0,0"/>
	<vehicle depart="167" id="veh5_0" route="we" type="car" color="1,0,0"/>
	<vehicle depart="170" id="veh2_0" route="sn1" type="car" color="1,0,0"/>
	<vehicle depart="171" id="veh4_11" route="ew" type="car" color="1,0,0"/>
	<vehicle depart="179" id="veh1_0" route="ns2" type="car" color="1,0,0"/>
	<vehicle depart="179" id="veh4_28" route="ew" type="car" color="1,0,0"/>
	<vehicle depart="184" id="veh0_1" route="ns1" type="car" color="1,0,0"/>
	<vehicle depart="184" id="veh4_41" route="ew" type="car" color="1,0,0"/>
	<vehicle depart="187" id="veh5_32" route="we" type="car" color="1,0,0"/>
	<vehicle depart="193" id="veh5_48" route="we" type="car" color="1,0,0"/>
	<vehicle depart="200" id="veh4_40" route="ew" type="car" color="1,0,0"/>
	<vehicle depart="200" id="veh5_25" route="we" type="car" color="1,0,0"/>
	<vehicle depart="208" id="veh5_4" route="we" type="car" color="1,0,0"/>
	<vehicle depart="213" id="veh4_7" route="ew" type="car" color="1,0,0"/>
	<vehicle depart="215" id="veh0_6" route="ns1" type="car" color="1,0,0"/>
	<vehicle depart="223" id="veh4_27" route="ew" type="car" color="1,0,0"/>
	<vehicle depart="223" id="veh5_35" route="we" type="car" color="1,0,0"/>
	<vehicle depart="224" id="veh4_32" route="ew" type="car" color="1,0,0"/>
	<vehicle depart="226" id="veh3_6" route="sn2" type="car" color="1,0,0"/>
	<vehicle depart="229" id="veh5_1" route="we" type="car" color="1,0,0"/>
	<vehicle depart="232" id="veh4_12" route="ew" type="car" color="1,0,0"/>
	<vehicle depart="253" id="veh5_23" route="we" type="car" color="1,0,0"/>
	<vehicle depart="255" id="veh0_7" route="ns1" type="car" color="1,0,0"/>
	<vehicle depart="264" id="veh4_37" route="ew" type="car" color="1,0,0"/>
	<vehicle depart="264" id="veh5_8" route="we" type="car" color="1,0,0"/>
	<vehicle depart="272" id="veh5_12" route="we" type="car" color="1,0,0"/>
	<vehicle depart="285" id="veh4_10" route="ew" type="car" color="1,0,0"/>
	<vehicle depart="287" id="veh4_8" route="ew" type="car" color="1,0,0"/>
	<vehicle depart="287" id="veh4_33" route="ew" type="car" color="1,0,0"/>
	<vehicle depart="303" id="veh5_11" route="we" type="car" color="1,0,0"/>
	<vehicle depart="306" id="veh2_5" route="sn1" type="car" color="1,0,0"/>
	<vehicle depart="318" id="veh5_33" route="we" type="car" color="1,0,0"/>
	<vehicle depart="321" id="veh5_34" route="we" type="car" color="1,0,0"/>
	<vehicle depart="324" id="veh5_26" route="we" type="car" color="1,0,0"/>
	<vehicle depart="334" id="veh3_1" route="sn2" type="car" color="1,0,0"/>
	<vehicle depart="352" id="veh2_3" route="sn1" type="car" color="1,0,0"/>
	<vehicle depart="355" id="veh1_7" route="ns2" type="car" color="1,0,0"/>
	<vehicle depart="359" id="veh4_6" route="ew" type="car" color="1,0,0"/>
	<vehicle depart="370" id="veh5_39" route="we" type="car" color="1,0,0"/>
	<vehicle depart="373" id="veh4_42" route="ew" type="car" color="1,0,0"/>
	<vehicle depart="378" id="veh3_9" route="sn2" type="car" color="1,0,0"/>
	<vehicle depart="379" id="veh5_31" route="we" type="car" color="1,0,0"/>
	<vehicle depart="384" id="veh5_45" route="we" type="car" color="1,0,0"/>
	<vehicle depart="385" id="veh5_16" route="we" type="car" color="1,0,0"/>
	<vehicle depart="388" id="veh0_4" route="ns1" type="car" color="1,0,0"/>
	<vehicle depart="398" id="veh5_49" route="we" type="car" color="1,0,0"/>
	<vehicle depart="402" id="veh4_2" route="ew" type="car" color="1,0,0"/>
	<vehicle depart="403" id="veh4_43" route="ew" type="car" color="1,0,0"/>
	<vehicle depart="418" id="veh4_24" route="ew" type="car" color="1,0,0"/>
	<vehicle depart="418" id="veh5_42" route="we" type="car" color="1,0,0"/>
	<vehicle depart="425" id="veh2_2" route="sn1" type="car" color="1,0,0"/>
	<vehicle depart="426" id="veh4_19" route="ew" type="car" color="1,0,0"/>
	<vehicle depart="426" id="veh5_5" route="we" type="car" color="1,0,0"/>
	<vehicle depart="427" id="veh2_9" route="sn1" type="car" color="1,0,0"/>
	<vehicle depart="428" id="veh3_2" route="sn2" type="car" color="1,0,0"/>
	<vehicle depart="431" id="veh3_8" route="sn2" type="car" color="1,0,0"/>
	<vehicle depart="432" id="veh1_4" route="ns2" type="car" color="1,0,0"/>
	<vehicle depart="442" id="veh4_18" route="ew" type="car" color="1,0,0"/>
	<vehicle depart="445" id="veh5_30" route="we" type="car" color="1,0,0"/>
	<vehicle depart="451" id="veh4_22" route="ew" type="car" color="1,0,0"/>
	<vehicle depart="454" id="veh4_16" route="ew" type="car" color="1,0,0"/>
	<vehicle depart="458" id="veh4_30" route="ew" type="car" color="1,0,0"/>
	<vehicle depart="462" id="veh5_36" route="we" type="car" color="1,0,0"/>
	<vehicle depart="463" id="veh5_27" route="we" type="car" color="1,0,0"/>
	<vehicle depart="486" id="veh3_0" route="sn2" type="car" color="1,0,0"/>
	<vehicle depart="486" id="veh5_29" route="we" type="car" color="1,0,0"/>
	<vehicle depart="500" id="veh4_1" route="ew" type="car" color="1,0,0"/>
	<vehicle depart="508" id="veh5_40" route="we" type="car" color="1,0,0"/>
	<vehicle depart="509" id="veh2_4" route="sn1" type="car" color="1,0,0"/>
	<vehicle depart="510" id="veh4_23" route="ew" type="car" color="1,0,0"/>
	<vehicle depart="521" id="veh1_2" route="ns2" type="car" color="1,0,0"/>
	<vehicle depart="525" id="veh2_1" route="sn1" type="car" color="1,0,0"/>
	<vehicle depart="531" id="veh4_3" route="ew" type="car" color="1,0,0"/>
	<vehicle depart="537" id="veh5_24" route="we" type="car" color="1,0,0"/>
	<vehicle depart="541" id="veh4_31" route="ew" type="car" color="1,0,0"/>
	<vehicle depart="544" id="veh5_46" route="we" type="car" color="1,0,0"/>
	<vehicle depart="545" id="veh1_6" route="ns2" type="car" color="1,0,0"/>
	<vehicle depart="545" id="veh4_44" route="ew" type="car" color="1,0,0"/>
	<vehicle depart="556" id="veh4_5" route="ew" type="car" color="1,0,0"/>
	<vehicle depart="570" id="veh5_17" route="we" type="car" color="1,0,0"/>
	<vehicle depart="572" id="veh4_9" route="ew" type="car" color="1,0,0"/>
	<vehicle depart="575" id="veh4_4" route="ew" type="car" color="1,0,0"/>
	<vehicle depart="585" id="veh0_9" route="ns1" type="car" color="1,0,0"/>
	<vehicle depart="587" id="veh5_9" route="we" type="car" color="1,0,0"/>
	<vehicle depart="595" id="veh3_7" route="sn2" type="car" color="1,0,0"/>
	<vehicle depart="597" id="veh4_25" route="ew" type="car" color="1,0,0"/>
	<vehicle depart="599" id="veh0_8" route="ns1" type="car" color="1,0,0"/>
	<vehicle depart="599" id="veh4_46" route="ew" type="car" color="1,0,0"/>
</routes>
