<routes>
	<vType id="car" accel="1.0" decel="5.0" length="4.0" minGap="2.5" maxSpeed="50.0" sigma="0.5"/>
	<route id="ns" edges="-E1 E3 "/>
	<route id="ne" edges="-E1 E2 "/>
	<route id="nw" edges="-E1 -E0 "/>
	<route id="sn" edges="-E3 E1 "/>
	<route id="se" edges="-E3 E2 "/>
	<route id="sw" edges="-E3 -E0 "/>
	<route id="ew" edges="-E2 -E0 "/>
	<route id="en" edges="-E2 E1 "/>
	<route id="es" edges="-E2 E3 "/>
	<route id="we" edges="E0 E2 "/>
	<route id="wn" edges="E0 E1 "/>
	<route id="ws" edges="E0 E3 "/>
	<vehicle depart="1" id="veh2_84" route="nw" type="car" color="1,0,0"/>
	<vehicle depart="2" id="veh1_7" route="ne" type="car" color="1,0,0"/>
	<vehicle depart="3" id="veh2_23" route="nw" type="car" color="1,0,0"/>
	<vehicle depart="8" id="veh9_6" route="we" type="car" color="1,0,0"/>
	<vehicle depart="14" id="veh1_64" route="ne" type="car" color="1,0,0"/>
	<vehicle depart="15" id="veh2_70" route="nw" type="car" color="1,0,0"/>
	<vehicle depart="16" id="veh2_78" route="nw" type="car" color="1,0,0"/>
	<vehicle depart="16" id="veh2_79" route="nw" type="car" color="1,0,0"/>
	<vehicle depart="16" id="veh6_8" route="ew" type="car" color="1,0,0"/>
	<vehicle depart="19" id="veh0_9" route="ns" type="car" color="1,0,0"/>
	<vehicle depart="21" id="veh2_34" route="nw" type="car" color="1,0,0"/>
	<vehicle depart="21" id="veh4_3" route="se" type="car" color="1,0,0"/>
	<vehicle depart="22" id="veh0_95" route="ns" type="car" color="1,0,0"/>
	<vehicle depart="23" id="veh2_66" route="nw" type="car" color="1,0,0"/>
	<vehicle depart="24" id="veh1_60" route="ne" type="car" color="1,0,0"/>
	<vehicle depart="24" id="veh2_27" route="nw" type="car" color="1,0,0"/>
	<vehicle depart="24" id="veh2_80" route="nw" type="car" color="1,0,0"/>
	<vehicle depart="27" id="veh2_44" route="nw" type="car" color="1,0,0"/>
	<vehicle depart="27" id="veh4_2" route="se" type="car" color="1,0,0"/>
	<vehicle depart="29" id="veh0_46" route="ns" type="car" color="1,0,0"/>
	<vehicle depart="29" id="veh1_54" route="ne" type="car" color="1,0,0"/>
	<vehicle depart="29" id="veh2_75" route="nw" type="car" color="1,0,0"/>
	<vehicle depart="30" id="veh1_75" route="ne" type="car" color="1,0,0"/>
	<vehicle depart="34" id="veh1_13" route="ne" type="car" color="1,0,0"/>
	<vehicle depart="34" id="veh2_5" route="nw" type="car" color="1,0,0"/>
	<vehicle depart="35" id="veh1_67" route="ne" type="car" color="1,0,0"/>
	<vehicle depart="37" id="veh2_40" route="nw" type="car" color="1,0,0"/>
	<vehicle depart="38" id="veh1_52" route="ne" type="car" color="1,0,0"/>
	<vehicle depart="40" id="veh5_1" route="sw" type="car" color="1,0,0"/>
	<vehicle depart="41" id="veh1_49" route="ne" type="car" color="1,0,0"/>
	<vehicle depart="41" id="veh2_14" route="nw" type="car" color="1,0,0"/>
	<vehicle depart="41" id="veh2_87" route="nw" type="car" color="1,0,0"/>
	<vehicle depart="43" id="veh6_4" route="ew" type="car" color="1,0,0"/>
	<vehicle depart="46" id="veh0_3" route="ns" type="car" color="1,0,0"/>
	<vehicle depart="46" id="veh1_42" route="ne" type="car" color="1,0,0"/>
	<vehicle depart="47" id="veh1_21" route="ne" type="car" color="1,0,0"/>
	<vehicle depart="47" id="veh1_92" route="ne" type="car" color="1,0,0"/>
	<vehicle depart="49" id="veh0_72" route="ns" type="car" color="1,0,0"/>
	<vehicle depart="51" id="veh0_0" route="ns" type="car" color="1,0,0"/>
	<vehicle depart="51" id="veh7_8" route="en" type="car" color="1,0,0"/>
	<vehicle depart="52" id="veh2_88" route="nw" type="car" color="1,0,0"/>
	<vehicle depart="53" id="veh1_19" route="ne" type="car" color="1,0,0"/>
	<vehicle depart="55" id="veh11_0" route="ws" type="car" color="1,0,0"/>
	<vehicle depart="56" id="veh1_28" route="ne" type="car" color="1,0,0"/>
	<vehicle depart="61" id="veh0_21" route="ns" type="car" color="1,0,0"/>
	<vehicle depart="62" id="veh2_37" route="nw" type="car" color="1,0,0"/>
	<vehicle depart="63" id="veh0_31" route="ns" type="car" color="1,0,0"/>
	<vehicle depart="63" id="veh2_50" route="nw" type="car" color="1,0,0"/>
	<vehicle depart="64" id="veh2_81" route="nw" type="car" color="1,0,0"/>
	<vehicle depart="65" id="veh1_36" route="ne" type="car" color="1,0,0"/>
	<vehicle depart="65" id="veh2_53" route="nw" type="car" color="1,0,0"/>
	<vehicle depart="66" id="veh2_56" route="nw" type="car" color="1,0,0"/>
	<vehicle depart="67" id="veh11_7" route="ws" type="car" color="1,0,0"/>
	<vehicle depart="68" id="veh1_98" route="ne" type="car" color="1,0,0"/>
	<vehicle depart="69" id="veh7_5" route="en" type="car" color="1,0,0"/>
	<vehicle depart="71" id="veh0_66" route="ns" type="car" color="1,0,0"/>
	<vehicle depart="73" id="veh2_82" route="nw" type="car" color="1,0,0"/>
	<vehicle depart="74" id="veh0_36" route="ns" type="car" color="1,0,0"/>
	<vehicle depart="75" id="veh1_34" route="ne" type="car" color="1,0,0"/>
	<vehicle depart="78" id="veh1_58" route="ne" type="car" color="1,0,0"/>
	<vehicle depart="79" id="veh10_9" route="wn" type="car" color="1,0,0"/>
	<vehicle depart="82" id="veh2_7" route="nw" type="car" color="1,0,0"/>
	<vehicle depart="83" id="veh1_6" route="ne" type="car" color="1,0,0"/>
	<vehicle depart="83" id="veh2_29" route="nw" type="car" color="1,0,0"/>
	<vehicle depart="86" id="veh1_63" route="ne" type="car" color="1,0,0"/>
	<vehicle depart="88" id="veh1_78" route="ne" type="car" color="1,0,0"/>
	<vehicle depart="90" id="veh2_24" route="nw" type="car" color="1,0,0"/>
	<vehicle depart="90" id="veh3_6" route="sn" type="car" color="1,0,0"/>
	<vehicle depart="91" id="veh0_16" route="ns" type="car" color="1,0,0"/>
	<vehicle depart="94" id="veh2_83" route="nw" type="car" color="1,0,0"/>
	<vehicle depart="95" id="veh0_97" route="ns" type="car" color="1,0,0"/>
	<vehicle depart="96" id="veh2_46" route="nw" type="car" color="1,0,0"/>
	<vehicle depart="97" id="veh1_85" route="ne" type="car" color="1,0,0"/>
	<vehicle depart="100" id="veh0_5" route="ns" type="car" color="1,0,0"/>
	<vehicle depart="100" id="veh6_6" route="ew" type="car" color="1,0,0"/>
	<vehicle depart="101" id="veh1_70" route="ne" type="car" color="1,0,0"/>
	<vehicle depart="105" id="veh0_34" route="ns" type="car" color="1,0,0"/>
	<vehicle depart="106" id="veh0_22" route="ns" type="car" color="1,0,0"/>
	<vehicle depart="106" id="veh0_54" route="ns" type="car" color="1,0,0"/>
	<vehicle depart="106" id="veh0_98" route="ns" type="car" color="1,0,0"/>
	<vehicle depart="106" id="veh2_41" route="nw" type="car" color="1,0,0"/>
	<vehicle depart="107" id="veh1_24" route="ne" type="car" color="1,0,0"/>
	<vehicle depart="108" id="veh0_25" route="ns" type="car" color="1,0,0"/>
	<vehicle depart="109" id="veh2_49" route="nw" type="car" color="1,0,0"/>
	<vehicle depart="110" id="veh0_52" route="ns" type="car" color="1,0,0"/>
	<vehicle depart="111" id="veh0_94" route="ns" type="car" color="1,0,0"/>
	<vehicle depart="112" id="veh0_68" route="ns" type="car" color="1,0,0"/>
	<vehicle depart="115" id="veh2_25" route="nw" type="car" color="1,0,0"/>
	<vehicle depart="115" id="veh4_4" route="se" type="car" color="1,0,0"/>
	<vehicle depart="116" id="veh4_7" route="se" type="car" color="1,0,0"/>
	<vehicle depart="121" id="veh1_23" route="ne" type="car" color="1,0,0"/>
	<vehicle depart="121" id="veh11_8" route="ws" type="car" color="1,0,0"/>
	<vehicle depart="122" id="veh0_50" route="ns" type="car" color="1,0,0"/>
	<vehicle depart="122" id="veh1_22" route="ne" type="car" color="1,0,0"/>
	<vehicle depart="123" id="veh0_92" route="ns" type="car" color="1,0,0"/>
	<vehicle depart="127" id="veh0_91" route="ns" type="car" color="1,0,0"/>
	<vehicle depart="127" id="veh2_21" route="nw" type="car" color="1,0,0"/>
	<vehicle depart="127" id="veh2_68" route="nw" type="car" color="1,0,0"/>
	<vehicle depart="128" id="veh0_24" route="ns" type="car" color="1,0,0"/>
	<vehicle depart="130" id="veh2_55" route="nw" type="car" color="1,0,0"/>
	<vehicle depart="131" id="veh0_15" route="ns" type="car" color="1,0,0"/>
	<vehicle depart="131" id="veh3_4" route="sn" type="car" color="1,0,0"/>
	<vehicle depart="132" id="veh0_84" route="ns" type="car" color="1,0,0"/>
	<vehicle depart="134" id="veh1_47" route="ne" type="car" color="1,0,0"/>
	<vehicle depart="137" id="veh7_7" route="en" type="car" color="1,0,0"/>
	<vehicle depart="141" id="veh1_29" route="ne" type="car" color="1,0,0"/>
	<vehicle depart="145" id="veh1_39" route="ne" type="car" color="1,0,0"/>
	<vehicle depart="145" id="veh3_5" route="sn" type="car" color="1,0,0"/>
	<vehicle depart="146" id="veh1_71" route="ne" type="car" color="1,0,0"/>
	<vehicle depart="146" id="veh2_64" route="nw" type="car" color="1,0,0"/>
	<vehicle depart="146" id="veh10_7" route="wn" type="car" color="1,0,0"/>
	<vehicle depart="147" id="veh1_2" route="ne" type="car" color="1,0,0"/>
	<vehicle depart="147" id="veh1_56" route="ne" type="car" color="1,0,0"/>
	<vehicle depart="147" id="veh2_6" route="nw" type="car" color="1,0,0"/>
	<vehicle depart="150" id="veh3_0" route="sn" type="car" color="1,0,0"/>
	<vehicle depart="152" id="veh0_18" route="ns" type="car" color="1,0,0"/>
	<vehicle depart="156" id="veh1_74" route="ne" type="car" color="1,0,0"/>
	<vehicle depart="156" id="veh2_13" route="nw" type="car" color="1,0,0"/>
	<vehicle depart="157" id="veh5_6" route="sw" type="car" color="1,0,0"/>
	<vehicle depart="158" id="veh2_85" route="nw" type="car" color="1,0,0"/>
	<vehicle depart="160" id="veh0_27" route="ns" type="car" color="1,0,0"/>
	<vehicle depart="163" id="veh0_89" route="ns" type="car" color="1,0,0"/>
	<vehicle depart="163" id="veh2_39" route="nw" type="car" color="1,0,0"/>
	<vehicle depart="168" id="veh2_95" route="nw" type="car" color="1,0,0"/>
	<vehicle depart="172" id="veh6_7" route="ew" type="car" color="1,0,0"/>
	<vehicle depart="177" id="veh7_1" route="en" type="car" color="1,0,0"/>
	<vehicle depart="178" id="veh0_80" route="ns" type="car" color="1,0,0"/>
	<vehicle depart="178" id="veh0_93" route="ns" type="car" color="1,0,0"/>
	<vehicle depart="179" id="veh0_87" route="ns" type="car" color="1,0,0"/>
	<vehicle depart="179" id="veh2_26" route="nw" type="car" color="1,0,0"/>
	<vehicle depart="180" id="veh8_5" route="es" type="car" color="1,0,0"/>
	<vehicle depart="181" id="veh2_89" route="nw" type="car" color="1,0,0"/>
	<vehicle depart="182" id="veh0_42" route="ns" type="car" color="1,0,0"/>
	<vehicle depart="182" id="veh0_58" route="ns" type="car" color="1,0,0"/>
	<vehicle depart="182" id="veh0_82" route="ns" type="car" color="1,0,0"/>
	<vehicle depart="183" id="veh2_59" route="nw" type="car" color="1,0,0"/>
	<vehicle depart="184" id="veh1_91" route="ne" type="car" color="1,0,0"/>
	<vehicle depart="184" id="veh2_54" route="nw" type="car" color="1,0,0"/>
	<vehicle depart="185" id="veh1_20" route="ne" type="car" color="1,0,0"/>
	<vehicle depart="191" id="veh1_97" route="ne" type="car" color="1,0,0"/>
	<vehicle depart="193" id="veh1_55" route="ne" type="car" color="1,0,0"/>
	<vehicle depart="193" id="veh9_0" route="we" type="car" color="1,0,0"/>
	<vehicle depart="194" id="veh1_77" route="ne" type="car" color="1,0,0"/>
	<vehicle depart="195" id="veh2_16" route="nw" type="car" color="1,0,0"/>
	<vehicle depart="196" id="veh6_3" route="ew" type="car" color="1,0,0"/>
	<vehicle depart="198" id="veh2_69" route="nw" type="car" color="1,0,0"/>
	<vehicle depart="200" id="veh2_62" route="nw" type="car" color="1,0,0"/>
	<vehicle depart="201" id="veh0_88" route="ns" type="car" color="1,0,0"/>
	<vehicle depart="201" id="veh4_9" route="se" type="car" color="1,0,0"/>
	<vehicle depart="205" id="veh2_3" route="nw" type="car" color="1,0,0"/>
	<vehicle depart="205" id="veh2_73" route="nw" type="car" color="1,0,0"/>
	<vehicle depart="207" id="veh2_1" route="nw" type="car" color="1,0,0"/>
	<vehicle depart="208" id="veh1_26" route="ne" type="car" color="1,0,0"/>
	<vehicle depart="208" id="veh7_4" route="en" type="car" color="1,0,0"/>
	<vehicle depart="210" id="veh5_5" route="sw" type="car" color="1,0,0"/>
	<vehicle depart="212" id="veh0_39" route="ns" type="car" color="1,0,0"/>
	<vehicle depart="212" id="veh2_61" route="nw" type="car" color="1,0,0"/>
	<vehicle depart="216" id="veh0_6" route="ns" type="car" color="1,0,0"/>
	<vehicle depart="216" id="veh1_10" route="ne" type="car" color="1,0,0"/>
	<vehicle depart="217" id="veh0_62" route="ns" type="car" color="1,0,0"/>
	<vehicle depart="219" id="veh4_1" route="se" type="car" color="1,0,0"/>
	<vehicle depart="220" id="veh0_53" route="ns" type="car" color="1,0,0"/>
	<vehicle depart="221" id="veh1_11" route="ne" type="car" color="1,0,0"/>
	<vehicle depart="223" id="veh10_1" route="wn" type="car" color="1,0,0"/>
	<vehicle depart="224" id="veh2_35" route="nw" type="car" color="1,0,0"/>
	<vehicle depart="226" id="veh7_3" route="en" type="car" color="1,0,0"/>
	<vehicle depart="227" id="veh0_35" route="ns" type="car" color="1,0,0"/>
	<vehicle depart="227" id="veh1_96" route="ne" type="car" color="1,0,0"/>
	<vehicle depart="229" id="veh2_52" route="nw" type="car" color="1,0,0"/>
	<vehicle depart="232" id="veh0_86" route="ns" type="car" color="1,0,0"/>
	<vehicle depart="234" id="veh1_15" route="ne" type="car" color="1,0,0"/>
	<vehicle depart="237" id="veh0_19" route="ns" type="car" color="1,0,0"/>
	<vehicle depart="237" id="veh1_65" route="ne" type="car" color="1,0,0"/>
	<vehicle depart="237" id="veh1_82" route="ne" type="car" color="1,0,0"/>
	<vehicle depart="237" id="veh1_89" route="ne" type="car" color="1,0,0"/>
	<vehicle depart="238" id="veh1_5" route="ne" type="car" color="1,0,0"/>
	<vehicle depart="238" id="veh1_18" route="ne" type="car" color="1,0,0"/>
	<vehicle depart="239" id="veh2_58" route="nw" type="car" color="1,0,0"/>
	<vehicle depart="241" id="veh2_32" route="nw" type="car" color="1,0,0"/>
	<vehicle depart="241" id="veh2_93" route="nw" type="car" color="1,0,0"/>
	<vehicle depart="243" id="veh1_68" route="ne" type="car" color="1,0,0"/>
	<vehicle depart="244" id="veh1_57" route="ne" type="car" color="1,0,0"/>
	<vehicle depart="244" id="veh8_1" route="es" type="car" color="1,0,0"/>
	<vehicle depart="245" id="veh4_5" route="se" type="car" color="1,0,0"/>
	<vehicle depart="248" id="veh0_85" route="ns" type="car" color="1,0,0"/>
	<vehicle depart="250" id="veh1_41" route="ne" type="car" color="1,0,0"/>
	<vehicle depart="250" id="veh1_69" route="ne" type="car" color="1,0,0"/>
	<vehicle depart="253" id="veh9_7" route="we" type="car" color="1,0,0"/>
	<vehicle depart="255" id="veh2_90" route="nw" type="car" color="1,0,0"/>
	<vehicle depart="258" id="veh3_7" route="sn" type="car" color="1,0,0"/>
	<vehicle depart="260" id="veh5_2" route="sw" type="car" color="1,0,0"/>
	<vehicle depart="262" id="veh2_8" route="nw" type="car" color="1,0,0"/>
	<vehicle depart="263" id="veh2_91" route="nw" type="car" color="1,0,0"/>
	<vehicle depart="265" id="veh1_0" route="ne" type="car" color="1,0,0"/>
	<vehicle depart="265" id="veh1_31" route="ne" type="car" color="1,0,0"/>
	<vehicle depart="268" id="veh0_29" route="ns" type="car" color="1,0,0"/>
	<vehicle depart="272" id="veh2_38" route="nw" type="car" color="1,0,0"/>
	<vehicle depart="273" id="veh0_47" route="ns" type="car" color="1,0,0"/>
	<vehicle depart="273" id="veh2_42" route="nw" type="car" color="1,0,0"/>
	<vehicle depart="274" id="veh0_37" route="ns" type="car" color="1,0,0"/>
	<vehicle depart="275" id="veh11_5" route="ws" type="car" color="1,0,0"/>
	<vehicle depart="277" id="veh11_1" route="ws" type="car" color="1,0,0"/>
	<vehicle depart="278" id="veh11_4" route="ws" type="car" color="1,0,0"/>
	<vehicle depart="282" id="veh0_14" route="ns" type="car" color="1,0,0"/>
	<vehicle depart="287" id="veh5_8" route="sw" type="car" color="1,0,0"/>
	<vehicle depart="289" id="veh1_50" route="ne" type="car" color="1,0,0"/>
	<vehicle depart="293" id="veh10_8" route="wn" type="car" color="1,0,0"/>
	<vehicle depart="295" id="veh0_83" route="ns" type="car" color="1,0,0"/>
	<vehicle depart="296" id="veh2_86" route="nw" type="car" color="1,0,0"/>
	<vehicle depart="297" id="veh2_97" route="nw" type="car" color="1,0,0"/>
	<vehicle depart="298" id="veh0_61" route="ns" type="car" color="1,0,0"/>
	<vehicle depart="298" id="veh1_76" route="ne" type="car" color="1,0,0"/>
	<vehicle depart="299" id="veh4_6" route="se" type="car" color="1,0,0"/>
	<vehicle depart="302" id="veh1_32" route="ne" type="car" color="1,0,0"/>
	<vehicle depart="303" id="veh2_67" route="nw" type="car" color="1,0,0"/>
	<vehicle depart="304" id="veh2_30" route="nw" type="car" color="1,0,0"/>
	<vehicle depart="305" id="veh1_46" route="ne" type="car" color="1,0,0"/>
	<vehicle depart="307" id="veh1_61" route="ne" type="car" color="1,0,0"/>
	<vehicle depart="309" id="veh1_79" route="ne" type="car" color="1,0,0"/>
	<vehicle depart="312" id="veh0_7" route="ns" type="car" color="1,0,0"/>
	<vehicle depart="312" id="veh1_27" route="ne" type="car" color="1,0,0"/>
	<vehicle depart="317" id="veh2_36" route="nw" type="car" color="1,0,0"/>
	<vehicle depart="318" id="veh2_2" route="nw" type="car" color="1,0,0"/>
	<vehicle depart="319" id="veh0_60" route="ns" type="car" color="1,0,0"/>
	<vehicle depart="326" id="veh1_33" route="ne" type="car" color="1,0,0"/>
	<vehicle depart="327" id="veh6_1" route="ew" type="car" color="1,0,0"/>
	<vehicle depart="330" id="veh0_20" route="ns" type="car" color="1,0,0"/>
	<vehicle depart="332" id="veh0_23" route="ns" type="car" color="1,0,0"/>
	<vehicle depart="337" id="veh2_0" route="nw" type="car" color="1,0,0"/>
	<vehicle depart="340" id="veh1_44" route="ne" type="car" color="1,0,0"/>
	<vehicle depart="341" id="veh4_0" route="se" type="car" color="1,0,0"/>
	<vehicle depart="341" id="veh9_3" route="we" type="car" color="1,0,0"/>
	<vehicle depart="344" id="veh0_99" route="ns" type="car" color="1,0,0"/>
	<vehicle depart="344" id="veh9_9" route="we" type="car" color="1,0,0"/>
	<vehicle depart="345" id="veh1_48" route="ne" type="car" color="1,0,0"/>
	<vehicle depart="345" id="veh10_0" route="wn" type="car" color="1,0,0"/>
	<vehicle depart="347" id="veh9_8" route="we" type="car" color="1,0,0"/>
	<vehicle depart="348" id="veh2_99" route="nw" type="car" color="1,0,0"/>
	<vehicle depart="350" id="veh8_7" route="es" type="car" color="1,0,0"/>
	<vehicle depart="352" id="veh1_16" route="ne" type="car" color="1,0,0"/>
	<vehicle depart="352" id="veh1_86" route="ne" type="car" color="1,0,0"/>
	<vehicle depart="352" id="veh10_5" route="wn" type="car" color="1,0,0"/>
	<vehicle depart="353" id="veh1_35" route="ne" type="car" color="1,0,0"/>
	<vehicle depart="354" id="veh1_84" route="ne" type="car" color="1,0,0"/>
	<vehicle depart="355" id="veh0_30" route="ns" type="car" color="1,0,0"/>
	<vehicle depart="355" id="veh0_69" route="ns" type="car" color="1,0,0"/>
	<vehicle depart="357" id="veh0_40" route="ns" type="car" color="1,0,0"/>
	<vehicle depart="359" id="veh0_79" route="ns" type="car" color="1,0,0"/>
	<vehicle depart="359" id="veh2_4" route="nw" type="car" color="1,0,0"/>
	<vehicle depart="360" id="veh2_98" route="nw" type="car" color="1,0,0"/>
	<vehicle depart="361" id="veh0_33" route="ns" type="car" color="1,0,0"/>
	<vehicle depart="361" id="veh0_59" route="ns" type="car" color="1,0,0"/>
	<vehicle depart="363" id="veh2_15" route="nw" type="car" color="1,0,0"/>
	<vehicle depart="367" id="veh2_20" route="nw" type="car" color="1,0,0"/>
	<vehicle depart="369" id="veh0_73" route="ns" type="car" color="1,0,0"/>
	<vehicle depart="371" id="veh2_12" route="nw" type="car" color="1,0,0"/>
	<vehicle depart="372" id="veh0_49" route="ns" type="car" color="1,0,0"/>
	<vehicle depart="372" id="veh9_1" route="we" type="car" color="1,0,0"/>
	<vehicle depart="376" id="veh0_1" route="ns" type="car" color="1,0,0"/>
	<vehicle depart="379" id="veh0_12" route="ns" type="car" color="1,0,0"/>
	<vehicle depart="381" id="veh1_17" route="ne" type="car" color="1,0,0"/>
	<vehicle depart="381" id="veh8_4" route="es" type="car" color="1,0,0"/>
	<vehicle depart="382" id="veh1_87" route="ne" type="car" color="1,0,0"/>
	<vehicle depart="385" id="veh0_17" route="ns" type="car" color="1,0,0"/>
	<vehicle depart="387" id="veh0_10" route="ns" type="car" color="1,0,0"/>
	<vehicle depart="389" id="veh0_57" route="ns" type="car" color="1,0,0"/>
	<vehicle depart="389" id="veh0_65" route="ns" type="car" color="1,0,0"/>
	<vehicle depart="395" id="veh5_0" route="sw" type="car" color="1,0,0"/>
	<vehicle depart="396" id="veh2_18" route="nw" type="car" color="1,0,0"/>
	<vehicle depart="399" id="veh0_74" route="ns" type="car" color="1,0,0"/>
	<vehicle depart="401" id="veh2_43" route="nw" type="car" color="1,0,0"/>
	<vehicle depart="411" id="veh7_6" route="en" type="car" color="1,0,0"/>
	<vehicle depart="412" id="veh0_2" route="ns" type="car" color="1,0,0"/>
	<vehicle depart="412" id="veh2_60" route="nw" type="car" color="1,0,0"/>
	<vehicle depart="413" id="veh0_48" route="ns" type="car" color="1,0,0"/>
	<vehicle depart="414" id="veh3_8" route="sn" type="car" color="1,0,0"/>
	<vehicle depart="414" id="veh6_2" route="ew" type="car" color="1,0,0"/>
	<vehicle depart="418" id="veh10_2" route="wn" type="car" color="1,0,0"/>
	<vehicle depart="421" id="veh0_81" route="ns" type="car" color="1,0,0"/>
	<vehicle depart="421" id="veh9_5" route="we" type="car" color="1,0,0"/>
	<vehicle depart="425" id="veh1_12" route="ne" type="car" color="1,0,0"/>
	<vehicle depart="425" id="veh11_2" route="ws" type="car" color="1,0,0"/>
	<vehicle depart="426" id="veh1_81" route="ne" type="car" color="1,0,0"/>
	<vehicle depart="426" id="veh5_3" route="sw" type="car" color="1,0,0"/>
	<vehicle depart="428" id="veh2_28" route="nw" type="car" color="1,0,0"/>
	<vehicle depart="429" id="veh0_44" route="ns" type="car" color="1,0,0"/>
	<vehicle depart="429" id="veh2_17" route="nw" type="car" color="1,0,0"/>
	<vehicle depart="431" id="veh2_76" route="nw" type="car" color="1,0,0"/>
	<vehicle depart="435" id="veh0_56" route="ns" type="car" color="1,0,0"/>
	<vehicle depart="435" id="veh1_14" route="ne" type="car" color="1,0,0"/>
	<vehicle depart="438" id="veh0_43" route="ns" type="car" color="1,0,0"/>
	<vehicle depart="443" id="veh8_2" route="es" type="car" color="1,0,0"/>
	<vehicle depart="444" id="veh1_4" route="ne" type="car" color="1,0,0"/>
	<vehicle depart="444" id="veh6_9" route="ew" type="car" color="1,0,0"/>
	<vehicle depart="445" id="veh0_13" route="ns" type="car" color="1,0,0"/>
	<vehicle depart="452" id="veh1_66" route="ne" type="car" color="1,0,0"/>
	<vehicle depart="452" id="veh7_9" route="en" type="car" color="1,0,0"/>
	<vehicle depart="455" id="veh3_3" route="sn" type="car" color="1,0,0"/>
	<vehicle depart="456" id="veh0_76" route="ns" type="car" color="1,0,0"/>
	<vehicle depart="457" id="veh2_63" route="nw" type="car" color="1,0,0"/>
	<vehicle depart="458" id="veh2_65" route="nw" type="car" color="1,0,0"/>
	<vehicle depart="460" id="veh0_11" route="ns" type="car" color="1,0,0"/>
	<vehicle depart="460" id="veh1_45" route="ne" type="car" color="1,0,0"/>
	<vehicle depart="461" id="veh1_8" route="ne" type="car" color="1,0,0"/>
	<vehicle depart="462" id="veh8_6" route="es" type="car" color="1,0,0"/>
	<vehicle depart="464" id="veh0_77" route="ns" type="car" color="1,0,0"/>
	<vehicle depart="465" id="veh8_9" route="es" type="car" color="1,0,0"/>
	<vehicle depart="467" id="veh0_8" route="ns" type="car" color="1,0,0"/>
	<vehicle depart="470" id="veh1_73" route="ne" type="car" color="1,0,0"/>
	<vehicle depart="471" id="veh8_3" route="es" type="car" color="1,0,0"/>
	<vehicle depart="472" id="veh1_1" route="ne" type="car" color="1,0,0"/>
	<vehicle depart="474" id="veh2_51" route="nw" type="car" color="1,0,0"/>
	<vehicle depart="475" id="veh1_62" route="ne" type="car" color="1,0,0"/>
	<vehicle depart="477" id="veh0_26" route="ns" type="car" color="1,0,0"/>
	<vehicle depart="477" id="veh2_33" route="nw" type="car" color="1,0,0"/>
	<vehicle depart="477" id="veh2_71" route="nw" type="car" color="1,0,0"/>
	<vehicle depart="480" id="veh2_45" route="nw" type="car" color="1,0,0"/>
	<vehicle depart="482" id="veh2_11" route="nw" type="car" color="1,0,0"/>
	<vehicle depart="484" id="veh0_38" route="ns" type="car" color="1,0,0"/>
	<vehicle depart="484" id="veh4_8" route="se" type="car" color="1,0,0"/>
	<vehicle depart="486" id="veh0_63" route="ns" type="car" color="1,0,0"/>
	<vehicle depart="486" id="veh1_43" route="ne" type="car" color="1,0,0"/>
	<vehicle depart="486" id="veh2_9" route="nw" type="car" color="1,0,0"/>
	<vehicle depart="488" id="veh1_53" route="ne" type="car" color="1,0,0"/>
	<vehicle depart="489" id="veh0_51" route="ns" type="car" color="1,0,0"/>
	<vehicle depart="489" id="veh0_75" route="ns" type="car" color="1,0,0"/>
	<vehicle depart="489" id="veh2_10" route="nw" type="car" color="1,0,0"/>
	<vehicle depart="495" id="veh1_37" route="ne" type="car" color="1,0,0"/>
	<vehicle depart="500" id="veh2_57" route="nw" type="car" color="1,0,0"/>
	<vehicle depart="501" id="veh2_47" route="nw" type="car" color="1,0,0"/>
	<vehicle depart="504" id="veh2_31" route="nw" type="car" color="1,0,0"/>
	<vehicle depart="511" id="veh0_45" route="ns" type="car" color="1,0,0"/>
	<vehicle depart="511" id="veh1_3" route="ne" type="car" color="1,0,0"/>
	<vehicle depart="513" id="veh6_0" route="ew" type="car" color="1,0,0"/>
	<vehicle depart="514" id="veh0_70" route="ns" type="car" color="1,0,0"/>
	<vehicle depart="515" id="veh1_95" route="ne" type="car" color="1,0,0"/>
	<vehicle depart="515" id="veh5_7" route="sw" type="car" color="1,0,0"/>
	<vehicle depart="518" id="veh1_99" route="ne" type="car" color="1,0,0"/>
	<vehicle depart="518" id="veh2_48" route="nw" type="car" color="1,0,0"/>
	<vehicle depart="519" id="veh11_9" route="ws" type="car" color="1,0,0"/>
	<vehicle depart="520" id="veh2_19" route="nw" type="car" color="1,0,0"/>
	<vehicle depart="521" id="veh1_93" route="ne" type="car" color="1,0,0"/>
	<vehicle depart="521" id="veh2_94" route="nw" type="car" color="1,0,0"/>
	<vehicle depart="523" id="veh0_90" route="ns" type="car" color="1,0,0"/>
	<vehicle depart="524" id="veh1_9" route="ne" type="car" color="1,0,0"/>
	<vehicle depart="527" id="veh0_78" route="ns" type="car" color="1,0,0"/>
	<vehicle depart="529" id="veh1_94" route="ne" type="car" color="1,0,0"/>
	<vehicle depart="529" id="veh9_2" route="we" type="car" color="1,0,0"/>
	<vehicle depart="529" id="veh11_3" route="ws" type="car" color="1,0,0"/>
	<vehicle depart="530" id="veh7_0" route="en" type="car" color="1,0,0"/>
	<vehicle depart="531" id="veh1_51" route="ne" type="car" color="1,0,0"/>
	<vehicle depart="532" id="veh10_4" route="wn" type="car" color="1,0,0"/>
	<vehicle depart="535" id="veh2_92" route="nw" type="car" color="1,0,0"/>
	<vehicle depart="536" id="veh9_4" route="we" type="car" color="1,0,0"/>
	<vehicle depart="539" id="veh1_25" route="ne" type="car" color="1,0,0"/>
	<vehicle depart="542" id="veh0_28" route="ns" type="car" color="1,0,0"/>
	<vehicle depart="545" id="veh1_30" route="ne" type="car" color="1,0,0"/>
	<vehicle depart="545" id="veh1_59" route="ne" type="car" color="1,0,0"/>
	<vehicle depart="545" id="veh2_96" route="nw" type="car" color="1,0,0"/>
	<vehicle depart="546" id="veh1_72" route="ne" type="car" color="1,0,0"/>
	<vehicle depart="546" id="veh2_77" route="nw" type="car" color="1,0,0"/>
	<vehicle depart="547" id="veh0_41" route="ns" type="car" color="1,0,0"/>
	<vehicle depart="549" id="veh0_4" route="ns" type="car" color="1,0,0"/>
	<vehicle depart="549" id="veh6_5" route="ew" type="car" color="1,0,0"/>
	<vehicle depart="550" id="veh5_4" route="sw" type="car" color="1,0,0"/>
	<vehicle depart="560" id="veh1_40" route="ne" type="car" color="1,0,0"/>
	<vehicle depart="561" id="veh1_83" route="ne" type="car" color="1,0,0"/>
	<vehicle depart="563" id="veh2_74" route="nw" type="car" color="1,0,0"/>
	<vehicle depart="563" id="veh11_6" route="ws" type="car" color="1,0,0"/>
	<vehicle depart="567" id="veh1_90" route="ne" type="car" color="1,0,0"/>
	<vehicle depart="572" id="veh2_72" route="nw" type="car" color="1,0,0"/>
	<vehicle depart="574" id="veh0_67" route="ns" type="car" color="1,0,0"/>
	<vehicle depart="576" id="veh10_3" route="wn" type="car" color="1,0,0"/>
	<vehicle depart="579" id="veh1_80" route="ne" type="car" color="1,0,0"/>
	<vehicle depart="579" id="veh5_9" route="sw" type="car" color="1,0,0"/>
	<vehicle depart="579" id="veh7_2" route="en" type="car" color="1,0,0"/>
	<vehicle depart="580" id="veh3_9" route="sn" type="car" color="1,0,0"/>
	<vehicle depart="580" id="veh8_8" route="es" type="car" color="1,0,0"/>
	<vehicle depart="581" id="veh3_2" route="sn" type="car" color="1,0,0"/>
	<vehicle depart="583" id="veh3_1" route="sn" type="car" color="1,0,0"/>
	<vehicle depart="583" id="veh10_6" route="wn" type="car" color="1,0,0"/>
	<vehicle depart="584" id="veh2_22" route="nw" type="car" color="1,0,0"/>
	<vehicle depart="585" id="veh0_55" route="ns" type="car" color="1,0,0"/>
	<vehicle depart="585" id="veh1_38" route="ne" type="car" color="1,0,0"/>
	<vehicle depart="586" id="veh0_32" route="ns" type="car" color="1,0,0"/>
	<vehicle depart="588" id="veh0_71" route="ns" type="car" color="1,0,0"/>
	<vehicle depart="588" id="veh1_88" route="ne" type="car" color="1,0,0"/>
	<vehicle depart="589" id="veh0_64" route="ns" type="car" color="1,0,0"/>
	<vehicle depart="589" id="veh0_96" route="ns" type="car" color="1,0,0"/>
	<vehicle depart="594" id="veh8_0" route="es" type="car" color="1,0,0"/>
</routes>
