<routes>
	<vType id="car" accel="1.0" decel="5.0" length="4.0" minGap="2.5" maxSpeed="50.0" sigma="0.5"/>
	<route id="ns" edges="E2 E3 "/>
	<route id="sn" edges="-E3 -E2 "/>
	<route id="ew" edges="-E1 -E0 "/>
	<route id="we" edges="E0 E1 "/>
	<vehicle depart="2" id="veh1_2" route="sn" type="car" color="1,0,0"/>
	<vehicle depart="8" id="veh0_87" route="ns" type="car" color="1,0,0"/>
	<vehicle depart="9" id="veh0_177" route="ns" type="car" color="1,0,0"/>
	<vehicle depart="10" id="veh0_91" route="ns" type="car" color="1,0,0"/>
	<vehicle depart="12" id="veh0_75" route="ns" type="car" color="1,0,0"/>
	<vehicle depart="17" id="veh1_8" route="sn" type="car" color="1,0,0"/>
	<vehicle depart="18" id="veh0_37" route="ns" type="car" color="1,0,0"/>
	<vehicle depart="20" id="veh0_38" route="ns" type="car" color="1,0,0"/>
	<vehicle depart="21" id="veh0_63" route="ns" type="car" color="1,0,0"/>
	<vehicle depart="21" id="veh2_4" route="ew" type="car" color="1,0,0"/>
	<vehicle depart="22" id="veh1_0" route="sn" type="car" color="1,0,0"/>
	<vehicle depart="23" id="veh0_68" route="ns" type="car" color="1,0,0"/>
	<vehicle depart="23" id="veh0_102" route="ns" type="car" color="1,0,0"/>
	<vehicle depart="27" id="veh0_84" route="ns" type="car" color="1,0,0"/>
	<vehicle depart="37" id="veh2_2" route="ew" type="car" color="1,0,0"/>
	<vehicle depart="38" id="veh0_122" route="ns" type="car" color="1,0,0"/>
	<vehicle depart="42" id="veh0_50" route="ns" type="car" color="1,0,0"/>
	<vehicle depart="43" id="veh0_161" route="ns" type="car" color="1,0,0"/>
	<vehicle depart="45" id="veh0_138" route="ns" type="car" color="1,0,0"/>
	<vehicle depart="45" id="veh0_155" route="ns" type="car" color="1,0,0"/>
	<vehicle depart="50" id="veh0_97" route="ns" type="car" color="1,0,0"/>
	<vehicle depart="53" id="veh0_83" route="ns" type="car" color="1,0,0"/>
	<vehicle depart="54" id="veh0_101" route="ns" type="car" color="1,0,0"/>
	<vehicle depart="61" id="veh0_71" route="ns" type="car" color="1,0,0"/>
	<vehicle depart="64" id="veh0_120" route="ns" type="car" color="1,0,0"/>
	<vehicle depart="64" id="veh0_151" route="ns" type="car" color="1,0,0"/>
	<vehicle depart="66" id="veh1_7" route="sn" type="car" color="1,0,0"/>
	<vehicle depart="69" id="veh0_35" route="ns" type="car" color="1,0,0"/>
	<vehicle depart="73" id="veh0_1" route="ns" type="car" color="1,0,0"/>
	<vehicle depart="78" id="veh0_185" route="ns" type="car" color="1,0,0"/>
	<vehicle depart="79" id="veh0_41" route="ns" type="car" color="1,0,0"/>
	<vehicle depart="82" id="veh0_78" route="ns" type="car" color="1,0,0"/>
	<vehicle depart="83" id="veh0_86" route="ns" type="car" color="1,0,0"/>
	<vehicle depart="84" id="veh0_167" route="ns" type="car" color="1,0,0"/>
	<vehicle depart="85" id="veh0_95" route="ns" type="car" color="1,0,0"/>
	<vehicle depart="88" id="veh0_157" route="ns" type="car" color="1,0,0"/>
	<vehicle depart="89" id="veh0_116" route="ns" type="car" color="1,0,0"/>
	<vehicle depart="89" id="veh0_159" route="ns" type="car" color="1,0,0"/>
	<vehicle depart="91" id="veh0_42" route="ns" type="car" color="1,0,0"/>
	<vehicle depart="97" id="veh2_1" route="ew" type="car" color="1,0,0"/>
	<vehicle depart="101" id="veh0_54" route="ns" type="car" color="1,0,0"/>
	<vehicle depart="102" id="veh0_36" route="ns" type="car" color="1,0,0"/>
	<vehicle depart="107" id="veh0_24" route="ns" type="car" color="1,0,0"/>
	<vehicle depart="109" id="veh0_140" route="ns" type="car" color="1,0,0"/>
	<vehicle depart="110" id="veh3_3" route="we" type="car" color="1,0,0"/>
	<vehicle depart="112" id="veh0_111" route="ns" type="car" color="1,0,0"/>
	<vehicle depart="113" id="veh0_129" route="ns" type="car" color="1,0,0"/>
	<vehicle depart="119" id="veh0_79" route="ns" type="car" color="1,0,0"/>
	<vehicle depart="130" id="veh0_59" route="ns" type="car" color="1,0,0"/>
	<vehicle depart="131" id="veh0_4" route="ns" type="car" color="1,0,0"/>
	<vehicle depart="134" id="veh0_82" route="ns" type="car" color="1,0,0"/>
	<vehicle depart="137" id="veh3_1" route="we" type="car" color="1,0,0"/>
	<vehicle depart="139" id="veh0_188" route="ns" type="car" color="1,0,0"/>
	<vehicle depart="142" id="veh0_107" route="ns" type="car" color="1,0,0"/>
	<vehicle depart="147" id="veh0_73" route="ns" type="car" color="1,0,0"/>
	<vehicle depart="149" id="veh0_152" route="ns" type="car" color="1,0,0"/>
	<vehicle depart="149" id="veh0_154" route="ns" type="car" color="1,0,0"/>
	<vehicle depart="152" id="veh0_27" route="ns" type="car" color="1,0,0"/>
	<vehicle depart="155" id="veh0_195" route="ns" type="car" color="1,0,0"/>
	<vehicle depart="156" id="veh0_8" route="ns" type="car" color="1,0,0"/>
	<vehicle depart="158" id="veh0_43" route="ns" type="car" color="1,0,0"/>
	<vehicle depart="158" id="veh0_61" route="ns" type="car" color="1,0,0"/>
	<vehicle depart="159" id="veh0_121" route="ns" type="car" color="1,0,0"/>
	<vehicle depart="160" id="veh0_114" route="ns" type="car" color="1,0,0"/>
	<vehicle depart="162" id="veh0_146" route="ns" type="car" color="1,0,0"/>
	<vehicle depart="164" id="veh0_29" route="ns" type="car" color="1,0,0"/>
	<vehicle depart="164" id="veh0_48" route="ns" type="car" color="1,0,0"/>
	<vehicle depart="167" id="veh0_106" route="ns" type="car" color="1,0,0"/>
	<vehicle depart="176" id="veh0_104" route="ns" type="car" color="1,0,0"/>
	<vehicle depart="178" id="veh3_0" route="we" type="car" color="1,0,0"/>
	<vehicle depart="182" id="veh0_44" route="ns" type="car" color="1,0,0"/>
	<vehicle depart="185" id="veh0_119" route="ns" type="car" color="1,0,0"/>
	<vehicle depart="186" id="veh0_164" route="ns" type="car" color="1,0,0"/>
	<vehicle depart="187" id="veh0_51" route="ns" type="car" color="1,0,0"/>
	<vehicle depart="190" id="veh0_56" route="ns" type="car" color="1,0,0"/>
	<vehicle depart="196" id="veh0_45" route="ns" type="car" color="1,0,0"/>
	<vehicle depart="199" id="veh0_40" route="ns" type="car" color="1,0,0"/>
	<vehicle depart="199" id="veh0_135" route="ns" type="car" color="1,0,0"/>
	<vehicle depart="199" id="veh0_171" route="ns" type="car" color="1,0,0"/>
	<vehicle depart="205" id="veh0_31" route="ns" type="car" color="1,0,0"/>
	<vehicle depart="205" id="veh0_179" route="ns" type="car" color="1,0,0"/>
	<vehicle depart="207" id="veh0_127" route="ns" type="car" color="1,0,0"/>
	<vehicle depart="207" id="veh0_133" route="ns" type="car" color="1,0,0"/>
	<vehicle depart="208" id="veh0_145" route="ns" type="car" color="1,0,0"/>
	<vehicle depart="210" id="veh2_8" route="ew" type="car" color="1,0,0"/>
	<vehicle depart="211" id="veh0_160" route="ns" type="car" color="1,0,0"/>
	<vehicle depart="212" id="veh0_12" route="ns" type="car" color="1,0,0"/>
	<vehicle depart="214" id="veh0_166" route="ns" type="car" color="1,0,0"/>
	<vehicle depart="215" id="veh0_134" route="ns" type="car" color="1,0,0"/>
	<vehicle depart="217" id="veh0_112" route="ns" type="car" color="1,0,0"/>
	<vehicle depart="221" id="veh0_92" route="ns" type="car" color="1,0,0"/>
	<vehicle depart="226" id="veh0_100" route="ns" type="car" color="1,0,0"/>
	<vehicle depart="229" id="veh0_130" route="ns" type="car" color="1,0,0"/>
	<vehicle depart="238" id="veh3_7" route="we" type="car" color="1,0,0"/>
	<vehicle depart="241" id="veh0_117" route="ns" type="car" color="1,0,0"/>
	<vehicle depart="242" id="veh0_67" route="ns" type="car" color="1,0,0"/>
	<vehicle depart="245" id="veh0_183" route="ns" type="car" color="1,0,0"/>
	<vehicle depart="248" id="veh0_109" route="ns" type="car" color="1,0,0"/>
	<vehicle depart="249" id="veh0_113" route="ns" type="car" color="1,0,0"/>
	<vehicle depart="251" id="veh0_10" route="ns" type="car" color="1,0,0"/>
	<vehicle depart="253" id="veh0_55" route="ns" type="car" color="1,0,0"/>
	<vehicle depart="254" id="veh0_165" route="ns" type="car" color="1,0,0"/>
	<vehicle depart="261" id="veh3_8" route="we" type="car" color="1,0,0"/>
	<vehicle depart="262" id="veh0_147" route="ns" type="car" color="1,0,0"/>
	<vehicle depart="265" id="veh0_142" route="ns" type="car" color="1,0,0"/>
	<vehicle depart="266" id="veh0_182" route="ns" type="car" color="1,0,0"/>
	<vehicle depart="267" id="veh0_77" route="ns" type="car" color="1,0,0"/>
	<vehicle depart="271" id="veh0_139" route="ns" type="car" color="1,0,0"/>
	<vehicle depart="280" id="veh0_156" route="ns" type="car" color="1,0,0"/>
	<vehicle depart="281" id="veh0_96" route="ns" type="car" color="1,0,0"/>
	<vehicle depart="281" id="veh0_126" route="ns" type="car" color="1,0,0"/>
	<vehicle depart="283" id="veh0_17" route="ns" type="car" color="1,0,0"/>
	<vehicle depart="284" id="veh0_34" route="ns" type="car" color="1,0,0"/>
	<vehicle depart="284" id="veh0_178" route="ns" type="car" color="1,0,0"/>
	<vehicle depart="286" id="veh0_66" route="ns" type="car" color="1,0,0"/>
	<vehicle depart="287" id="veh0_136" route="ns" type="car" color="1,0,0"/>
	<vehicle depart="293" id="veh0_186" route="ns" type="car" color="1,0,0"/>
	<vehicle depart="294" id="veh2_7" route="ew" type="car" color="1,0,0"/>
	<vehicle depart="296" id="veh0_103" route="ns" type="car" color="1,0,0"/>
	<vehicle depart="297" id="veh0_176" route="ns" type="car" color="1,0,0"/>
	<vehicle depart="300" id="veh3_6" route="we" type="car" color="1,0,0"/>
	<vehicle depart="301" id="veh0_175" route="ns" type="car" color="1,0,0"/>
	<vehicle depart="308" id="veh0_49" route="ns" type="car" color="1,0,0"/>
	<vehicle depart="308" id="veh0_65" route="ns" type="car" color="1,0,0"/>
	<vehicle depart="308" id="veh0_196" route="ns" type="car" color="1,0,0"/>
	<vehicle depart="309" id="veh0_141" route="ns" type="car" color="1,0,0"/>
	<vehicle depart="311" id="veh0_15" route="ns" type="car" color="1,0,0"/>
	<vehicle depart="311" id="veh0_187" route="ns" type="car" color="1,0,0"/>
	<vehicle depart="313" id="veh0_158" route="ns" type="car" color="1,0,0"/>
	<vehicle depart="323" id="veh0_72" route="ns" type="car" color="1,0,0"/>
	<vehicle depart="325" id="veh0_90" route="ns" type="car" color="1,0,0"/>
	<vehicle depart="328" id="veh0_2" route="ns" type="car" color="1,0,0"/>
	<vehicle depart="329" id="veh2_0" route="ew" type="car" color="1,0,0"/>
	<vehicle depart="331" id="veh0_191" route="ns" type="car" color="1,0,0"/>
	<vehicle depart="333" id="veh1_6" route="sn" type="car" color="1,0,0"/>
	<vehicle depart="340" id="veh0_5" route="ns" type="car" color="1,0,0"/>
	<vehicle depart="341" id="veh0_22" route="ns" type="car" color="1,0,0"/>
	<vehicle depart="345" id="veh0_162" route="ns" type="car" color="1,0,0"/>
	<vehicle depart="351" id="veh2_3" route="ew" type="car" color="1,0,0"/>
	<vehicle depart="352" id="veh0_194" route="ns" type="car" color="1,0,0"/>
	<vehicle depart="352" id="veh0_198" route="ns" type="car" color="1,0,0"/>
	<vehicle depart="356" id="veh0_143" route="ns" type="car" color="1,0,0"/>
	<vehicle depart="360" id="veh0_124" route="ns" type="car" color="1,0,0"/>
	<vehicle depart="363" id="veh0_0" route="ns" type="car" color="1,0,0"/>
	<vehicle depart="363" id="veh3_9" route="we" type="car" color="1,0,0"/>
	<vehicle depart="365" id="veh0_172" route="ns" type="car" color="1,0,0"/>
	<vehicle depart="366" id="veh0_14" route="ns" type="car" color="1,0,0"/>
	<vehicle depart="373" id="veh0_62" route="ns" type="car" color="1,0,0"/>
	<vehicle depart="374" id="veh0_131" route="ns" type="car" color="1,0,0"/>
	<vehicle depart="377" id="veh0_58" route="ns" type="car" color="1,0,0"/>
	<vehicle depart="384" id="veh0_180" route="ns" type="car" color="1,0,0"/>
	<vehicle depart="384" id="veh3_5" route="we" type="car" color="1,0,0"/>
	<vehicle depart="387" id="veh0_6" route="ns" type="car" color="1,0,0"/>
	<vehicle depart="390" id="veh0_110" route="ns" type="car" color="1,0,0"/>
	<vehicle depart="392" id="veh3_2" route="we" type="car" color="1,0,0"/>
	<vehicle depart="394" id="veh0_115" route="ns" type="car" color="1,0,0"/>
	<vehicle depart="401" id="veh0_181" route="ns" type="car" color="1,0,0"/>
	<vehicle depart="404" id="veh0_174" route="ns" type="car" color="1,0,0"/>
	<vehicle depart="405" id="veh0_148" route="ns" type="car" color="1,0,0"/>
	<vehicle depart="408" id="veh0_39" route="ns" type="car" color="1,0,0"/>
	<vehicle depart="408" id="veh0_149" route="ns" type="car" color="1,0,0"/>
	<vehicle depart="411" id="veh0_3" route="ns" type="car" color="1,0,0"/>
	<vehicle depart="411" id="veh0_197" route="ns" type="car" color="1,0,0"/>
	<vehicle depart="413" id="veh0_76" route="ns" type="car" color="1,0,0"/>
	<vehicle depart="416" id="veh0_19" route="ns" type="car" color="1,0,0"/>
	<vehicle depart="416" id="veh1_1" route="sn" type="car" color="1,0,0"/>
	<vehicle depart="417" id="veh0_89" route="ns" type="car" color="1,0,0"/>
	<vehicle depart="418" id="veh0_168" route="ns" type="car" color="1,0,0"/>
	<vehicle depart="421" id="veh0_9" route="ns" type="car" color="1,0,0"/>
	<vehicle depart="421" id="veh0_60" route="ns" type="car" color="1,0,0"/>
	<vehicle depart="437" id="veh0_64" route="ns" type="car" color="1,0,0"/>
	<vehicle depart="440" id="veh2_9" route="ew" type="car" color="1,0,0"/>
	<vehicle depart="441" id="veh0_123" route="ns" type="car" color="1,0,0"/>
	<vehicle depart="445" id="veh0_125" route="ns" type="car" color="1,0,0"/>
	<vehicle depart="446" id="veh0_18" route="ns" type="car" color="1,0,0"/>
	<vehicle depart="447" id="veh0_20" route="ns" type="car" color="1,0,0"/>
	<vehicle depart="447" id="veh0_26" route="ns" type="car" color="1,0,0"/>
	<vehicle depart="448" id="veh0_94" route="ns" type="car" color="1,0,0"/>
	<vehicle depart="450" id="veh0_153" route="ns" type="car" color="1,0,0"/>
	<vehicle depart="453" id="veh0_173" route="ns" type="car" color="1,0,0"/>
	<vehicle depart="461" id="veh0_118" route="ns" type="car" color="1,0,0"/>
	<vehicle depart="464" id="veh0_21" route="ns" type="car" color="1,0,0"/>
	<vehicle depart="465" id="veh0_11" route="ns" type="car" color="1,0,0"/>
	<vehicle depart="474" id="veh0_23" route="ns" type="car" color="1,0,0"/>
	<vehicle depart="478" id="veh0_47" route="ns" type="car" color="1,0,0"/>
	<vehicle depart="478" id="veh0_170" route="ns" type="car" color="1,0,0"/>
	<vehicle depart="482" id="veh0_88" route="ns" type="car" color="1,0,0"/>
	<vehicle depart="484" id="veh0_81" route="ns" type="car" color="1,0,0"/>
	<vehicle depart="489" id="veh0_137" route="ns" type="car" color="1,0,0"/>
	<vehicle depart="493" id="veh0_163" route="ns" type="car" color="1,0,0"/>
	<vehicle depart="498" id="veh0_150" route="ns" type="car" color="1,0,0"/>
	<vehicle depart="499" id="veh0_28" route="ns" type="car" color="1,0,0"/>
	<vehicle depart="502" id="veh0_189" route="ns" type="car" color="1,0,0"/>
	<vehicle depart="504" id="veh0_25" route="ns" type="car" color="1,0,0"/>
	<vehicle depart="504" id="veh0_105" route="ns" type="car" color="1,0,0"/>
	<vehicle depart="508" id="veh0_70" route="ns" type="car" color="1,0,0"/>
	<vehicle depart="508" id="veh1_5" route="sn" type="car" color="1,0,0"/>
	<vehicle depart="510" id="veh1_9" route="sn" type="car" color="1,0,0"/>
	<vehicle depart="512" id="veh0_52" route="ns" type="car" color="1,0,0"/>
	<vehicle depart="515" id="veh0_85" route="ns" type="car" color="1,0,0"/>
	<vehicle depart="516" id="veh0_169" route="ns" type="car" color="1,0,0"/>
	<vehicle depart="518" id="veh2_5" route="ew" type="car" color="1,0,0"/>
	<vehicle depart="522" id="veh0_93" route="ns" type="car" color="1,0,0"/>
	<vehicle depart="525" id="veh0_32" route="ns" type="car" color="1,0,0"/>
	<vehicle depart="525" id="veh0_46" route="ns" type="car" color="1,0,0"/>
	<vehicle depart="525" id="veh3_4" route="we" type="car" color="1,0,0"/>
	<vehicle depart="526" id="veh0_57" route="ns" type="car" color="1,0,0"/>
	<vehicle depart="527" id="veh0_190" route="ns" type="car" color="1,0,0"/>
	<vehicle depart="530" id="veh0_33" route="ns" type="car" color="1,0,0"/>
	<vehicle depart="531" id="veh2_6" route="ew" type="car" color="1,0,0"/>
	<vehicle depart="537" id="veh0_144" route="ns" type="car" color="1,0,0"/>
	<vehicle depart="538" id="veh0_16" route="ns" type="car" color="1,0,0"/>
	<vehicle depart="545" id="veh0_108" route="ns" type="car" color="1,0,0"/>
	<vehicle depart="552" id="veh0_128" route="ns" type="car" color="1,0,0"/>
	<vehicle depart="555" id="veh0_132" route="ns" type="car" color="1,0,0"/>
	<vehicle depart="556" id="veh0_80" route="ns" type="car" color="1,0,0"/>
	<vehicle depart="560" id="veh0_99" route="ns" type="car" color="1,0,0"/>
	<vehicle depart="560" id="veh0_192" route="ns" type="car" color="1,0,0"/>
	<vehicle depart="571" id="veh0_53" route="ns" type="car" color="1,0,0"/>
	<vehicle depart="572" id="veh0_199" route="ns" type="car" color="1,0,0"/>
	<vehicle depart="576" id="veh0_98" route="ns" type="car" color="1,0,0"/>
	<vehicle depart="578" id="veh0_13" route="ns" type="car" color="1,0,0"/>
	<vehicle depart="584" id="veh1_4" route="sn" type="car" color="1,0,0"/>
	<vehicle depart="586" id="veh0_30" route="ns" type="car" color="1,0,0"/>
	<vehicle depart="586" id="veh0_69" route="ns" type="car" color="1,0,0"/>
	<vehicle depart="591" id="veh1_3" route="sn" type="car" color="1,0,0"/>
	<vehicle depart="596" id="veh0_7" route="ns" type="car" color="1,0,0"/>
	<vehicle depart="597" id="veh0_74" route="ns" type="car" color="1,0,0"/>
	<vehicle depart="597" id="veh0_184" route="ns" type="car" color="1,0,0"/>
	<vehicle depart="597" id="veh0_193" route="ns" type="car" color="1,0,0"/>
</routes>
