<routes>
	<vType id="car" accel="1.0" decel="5.0" length="4.0" minGap="2.5" maxSpeed="50.0" sigma="0.5"/>
	<route id="ns" edges="E0 E1 "/>
	<route id="sn" edges="-E1 -E0 "/>
	<route id="ew" edges="-E3 -E2 "/>
	<route id="we" edges="E2 E3 "/>
	<vehicle depart="1" id="veh0_94" route="ns" type="car" color="1,0,0"/>
	<vehicle depart="4" id="veh0_67" route="ns" type="car" color="1,0,0"/>
	<vehicle depart="6" id="veh2_4" route="ew" type="car" color="1,0,0"/>
	<vehicle depart="10" id="veh0_75" route="ns" type="car" color="1,0,0"/>
	<vehicle depart="27" id="veh0_76" route="ns" type="car" color="1,0,0"/>
	<vehicle depart="35" id="veh0_33" route="ns" type="car" color="1,0,0"/>
	<vehicle depart="37" id="veh0_2" route="ns" type="car" color="1,0,0"/>
	<vehicle depart="37" id="veh0_12" route="ns" type="car" color="1,0,0"/>
	<vehicle depart="40" id="veh0_82" route="ns" type="car" color="1,0,0"/>
	<vehicle depart="54" id="veh0_51" route="ns" type="car" color="1,0,0"/>
	<vehicle depart="56" id="veh0_39" route="ns" type="car" color="1,0,0"/>
	<vehicle depart="69" id="veh3_6" route="we" type="car" color="1,0,0"/>
	<vehicle depart="77" id="veh1_5" route="sn" type="car" color="1,0,0"/>
	<vehicle depart="77" id="veh2_7" route="ew" type="car" color="1,0,0"/>
	<vehicle depart="81" id="veh3_8" route="we" type="car" color="1,0,0"/>
	<vehicle depart="81" id="veh3_9" route="we" type="car" color="1,0,0"/>
	<vehicle depart="88" id="veh0_1" route="ns" type="car" color="1,0,0"/>
	<vehicle depart="89" id="veh3_7" route="we" type="car" color="1,0,0"/>
	<vehicle depart="93" id="veh0_43" route="ns" type="car" color="1,0,0"/>
	<vehicle depart="97" id="veh0_56" route="ns" type="car" color="1,0,0"/>
	<vehicle depart="99" id="veh0_50" route="ns" type="car" color="1,0,0"/>
	<vehicle depart="100" id="veh0_57" route="ns" type="car" color="1,0,0"/>
	<vehicle depart="102" id="veh0_93" route="ns" type="car" color="1,0,0"/>
	<vehicle depart="115" id="veh0_24" route="ns" type="car" color="1,0,0"/>
	<vehicle depart="116" id="veh0_29" route="ns" type="car" color="1,0,0"/>
	<vehicle depart="118" id="veh0_31" route="ns" type="car" color="1,0,0"/>
	<vehicle depart="122" id="veh0_47" route="ns" type="car" color="1,0,0"/>
	<vehicle depart="125" id="veh0_44" route="ns" type="car" color="1,0,0"/>
	<vehicle depart="131" id="veh0_95" route="ns" type="car" color="1,0,0"/>
	<vehicle depart="135" id="veh3_5" route="we" type="car" color="1,0,0"/>
	<vehicle depart="137" id="veh0_99" route="ns" type="car" color="1,0,0"/>
	<vehicle depart="139" id="veh1_9" route="sn" type="car" color="1,0,0"/>
	<vehicle depart="143" id="veh0_37" route="ns" type="car" color="1,0,0"/>
	<vehicle depart="149" id="veh0_66" route="ns" type="car" color="1,0,0"/>
	<vehicle depart="155" id="veh0_0" route="ns" type="car" color="1,0,0"/>
	<vehicle depart="155" id="veh1_4" route="sn" type="car" color="1,0,0"/>
	<vehicle depart="158" id="veh0_55" route="ns" type="car" color="1,0,0"/>
	<vehicle depart="161" id="veh0_74" route="ns" type="car" color="1,0,0"/>
	<vehicle depart="162" id="veh0_49" route="ns" type="car" color="1,0,0"/>
	<vehicle depart="162" id="veh1_6" route="sn" type="car" color="1,0,0"/>
	<vehicle depart="164" id="veh0_81" route="ns" type="car" color="1,0,0"/>
	<vehicle depart="197" id="veh0_69" route="ns" type="car" color="1,0,0"/>
	<vehicle depart="197" id="veh0_70" route="ns" type="car" color="1,0,0"/>
	<vehicle depart="199" id="veh1_0" route="sn" type="car" color="1,0,0"/>
	<vehicle depart="202" id="veh0_89" route="ns" type="car" color="1,0,0"/>
	<vehicle depart="205" id="veh0_36" route="ns" type="car" color="1,0,0"/>
	<vehicle depart="207" id="veh0_63" route="ns" type="car" color="1,0,0"/>
	<vehicle depart="212" id="veh0_54" route="ns" type="car" color="1,0,0"/>
	<vehicle depart="214" id="veh3_3" route="we" type="car" color="1,0,0"/>
	<vehicle depart="217" id="veh2_9" route="ew" type="car" color="1,0,0"/>
	<vehicle depart="221" id="veh0_32" route="ns" type="car" color="1,0,0"/>
	<vehicle depart="228" id="veh3_4" route="we" type="car" color="1,0,0"/>
	<vehicle depart="234" id="veh0_80" route="ns" type="car" color="1,0,0"/>
	<vehicle depart="236" id="veh0_19" route="ns" type="car" color="1,0,0"/>
	<vehicle depart="242" id="veh0_7" route="ns" type="car" color="1,0,0"/>
	<vehicle depart="251" id="veh1_7" route="sn" type="car" color="1,0,0"/>
	<vehicle depart="254" id="veh0_87" route="ns" type="car" color="1,0,0"/>
	<vehicle depart="262" id="veh0_62" route="ns" type="car" color="1,0,0"/>
	<vehicle depart="291" id="veh0_96" route="ns" type="car" color="1,0,0"/>
	<vehicle depart="292" id="veh3_2" route="we" type="car" color="1,0,0"/>
	<vehicle depart="294" id="veh0_9" route="ns" type="car" color="1,0,0"/>
	<vehicle depart="296" id="veh0_17" route="ns" type="car" color="1,0,0"/>
	<vehicle depart="296" id="veh0_22" route="ns" type="car" color="1,0,0"/>
	<vehicle depart="296" id="veh3_1" route="we" type="car" color="1,0,0"/>
	<vehicle depart="299" id="veh0_5" route="ns" type="car" color="1,0,0"/>
	<vehicle depart="304" id="veh0_27" route="ns" type="car" color="1,0,0"/>
	<vehicle depart="310" id="veh0_14" route="ns" type="car" color="1,0,0"/>
	<vehicle depart="321" id="veh0_21" route="ns" type="car" color="1,0,0"/>
	<vehicle depart="323" id="veh0_18" route="ns" type="car" color="1,0,0"/>
	<vehicle depart="327" id="veh2_5" route="ew" type="car" color="1,0,0"/>
	<vehicle depart="331" id="veh0_71" route="ns" type="car" color="1,0,0"/>
	<vehicle depart="336" id="veh0_53" route="ns" type="car" color="1,0,0"/>
	<vehicle depart="338" id="veh1_8" route="sn" type="car" color="1,0,0"/>
	<vehicle depart="345" id="veh0_64" route="ns" type="car" color="1,0,0"/>
	<vehicle depart="347" id="veh0_84" route="ns" type="car" color="1,0,0"/>
	<vehicle depart="348" id="veh0_15" route="ns" type="car" color="1,0,0"/>
	<vehicle depart="354" id="veh1_2" route="sn" type="car" color="1,0,0"/>
	<vehicle depart="355" id="veh0_11" route="ns" type="car" color="1,0,0"/>
	<vehicle depart="357" id="veh2_3" route="ew" type="car" color="1,0,0"/>
	<vehicle depart="359" id="veh0_86" route="ns" type="car" color="1,0,0"/>
	<vehicle depart="370" id="veh0_23" route="ns" type="car" color="1,0,0"/>
	<vehicle depart="376" id="veh0_83" route="ns" type="car" color="1,0,0"/>
	<vehicle depart="378" id="veh0_6" route="ns" type="car" color="1,0,0"/>
	<vehicle depart="386" id="veh0_42" route="ns" type="car" color="1,0,0"/>
	<vehicle depart="388" id="veh0_45" route="ns" type="car" color="1,0,0"/>
	<vehicle depart="389" id="veh0_3" route="ns" type="car" color="1,0,0"/>
	<vehicle depart="392" id="veh0_38" route="ns" type="car" color="1,0,0"/>
	<vehicle depart="395" id="veh0_16" route="ns" type="car" color="1,0,0"/>
	<vehicle depart="396" id="veh0_52" route="ns" type="car" color="1,0,0"/>
	<vehicle depart="397" id="veh0_46" route="ns" type="car" color="1,0,0"/>
	<vehicle depart="397" id="veh0_59" route="ns" type="car" color="1,0,0"/>
	<vehicle depart="400" id="veh0_65" route="ns" type="car" color="1,0,0"/>
	<vehicle depart="413" id="veh2_8" route="ew" type="car" color="1,0,0"/>
	<vehicle depart="418" id="veh1_1" route="sn" type="car" color="1,0,0"/>
	<vehicle depart="423" id="veh0_13" route="ns" type="car" color="1,0,0"/>
	<vehicle depart="433" id="veh2_6" route="ew" type="car" color="1,0,0"/>
	<vehicle depart="434" id="veh1_3" route="sn" type="car" color="1,0,0"/>
	<vehicle depart="436" id="veh0_58" route="ns" type="car" color="1,0,0"/>
	<vehicle depart="436" id="veh0_61" route="ns" type="car" color="1,0,0"/>
	<vehicle depart="439" id="veh0_40" route="ns" type="car" color="1,0,0"/>
	<vehicle depart="446" id="veh0_25" route="ns" type="car" color="1,0,0"/>
	<vehicle depart="454" id="veh0_88" route="ns" type="car" color="1,0,0"/>
	<vehicle depart="462" id="veh0_34" route="ns" type="car" color="1,0,0"/>
	<vehicle depart="463" id="veh0_85" route="ns" type="car" color="1,0,0"/>
	<vehicle depart="465" id="veh2_2" route="ew" type="car" color="1,0,0"/>
	<vehicle depart="467" id="veh0_35" route="ns" type="car" color="1,0,0"/>
	<vehicle depart="472" id="veh0_78" route="ns" type="car" color="1,0,0"/>
	<vehicle depart="484" id="veh0_73" route="ns" type="car" color="1,0,0"/>
	<vehicle depart="485" id="veh0_20" route="ns" type="car" color="1,0,0"/>
	<vehicle depart="489" id="veh0_48" route="ns" type="car" color="1,0,0"/>
	<vehicle depart="494" id="veh0_60" route="ns" type="car" color="1,0,0"/>
	<vehicle depart="495" id="veh0_97" route="ns" type="car" color="1,0,0"/>
	<vehicle depart="502" id="veh0_8" route="ns" type="car" color="1,0,0"/>
	<vehicle depart="512" id="veh0_91" route="ns" type="car" color="1,0,0"/>
	<vehicle depart="525" id="veh0_92" route="ns" type="car" color="1,0,0"/>
	<vehicle depart="532" id="veh0_26" route="ns" type="car" color="1,0,0"/>
	<vehicle depart="536" id="veh0_41" route="ns" type="car" color="1,0,0"/>
	<vehicle depart="539" id="veh0_28" route="ns" type="car" color="1,0,0"/>
	<vehicle depart="544" id="veh0_10" route="ns" type="car" color="1,0,0"/>
	<vehicle depart="553" id="veh0_77" route="ns" type="car" color="1,0,0"/>
	<vehicle depart="562" id="veh0_90" route="ns" type="car" color="1,0,0"/>
	<vehicle depart="572" id="veh0_79" route="ns" type="car" color="1,0,0"/>
	<vehicle depart="574" id="veh0_68" route="ns" type="car" color="1,0,0"/>
	<vehicle depart="576" id="veh0_72" route="ns" type="car" color="1,0,0"/>
	<vehicle depart="580" id="veh0_4" route="ns" type="car" color="1,0,0"/>
	<vehicle depart="584" id="veh2_1" route="ew" type="car" color="1,0,0"/>
	<vehicle depart="584" id="veh3_0" route="we" type="car" color="1,0,0"/>
	<vehicle depart="587" id="veh0_98" route="ns" type="car" color="1,0,0"/>
	<vehicle depart="589" id="veh2_0" route="ew" type="car" color="1,0,0"/>
	<vehicle depart="600" id="veh0_30" route="ns" type="car" color="1,0,0"/>
</routes>
