<?xml version="1.0" encoding="UTF-8"?>

<!-- generated on 2023-11-09 01:33:11 by Eclipse SUMO netedit Version 1.12.0
<configuration xmlns:xsi="http://www.w3.org/2001/XMLSchema-instance" xsi:noNamespaceSchemaLocation="http://sumo.dlr.de/xsd/netconvertConfiguration.xsd">

    <output>
        <output-file value="/home/rosen902/Dev/AI50/sumofiles/intersection.net.xml"/>
    </output>

    <processing>
        <offset.disable-normalization value="true"/>
    </processing>

    <junctions>
        <no-turnarounds value="true"/>
    </junctions>

    <report>
        <aggregate-warnings value="5"/>
    </report>

</configuration>
-->

<net version="1.9" junctionCornerDetail="5" limitTurnSpeed="5.50" xmlns:xsi="http://www.w3.org/2001/XMLSchema-instance" xsi:noNamespaceSchemaLocation="http://sumo.dlr.de/xsd/net_file.xsd">

    <location netOffset="0.00,0.00" convBoundary="0.00,0.00,100.00,100.00" origBoundary="10000000000.00,10000000000.00,-10000000000.00,-10000000000.00" projParameter="!"/>

    <edge id=":J1_0" function="internal">
        <lane id=":J1_0_0" index="0" speed="13.89" length="14.40" shape="48.40,57.20 48.40,42.80"/>
    </edge>
    <edge id=":J1_1" function="internal">
        <lane id=":J1_1_0" index="0" speed="13.89" length="14.40" shape="57.20,51.60 42.80,51.60"/>
    </edge>
    <edge id=":J1_2" function="internal">
        <lane id=":J1_2_0" index="0" speed="13.89" length="14.40" shape="51.60,42.80 51.60,57.20"/>
    </edge>
    <edge id=":J1_3" function="internal">
        <lane id=":J1_3_0" index="0" speed="13.89" length="14.40" shape="42.80,48.40 57.20,48.40"/>
    </edge>

    <edge id="-E0" from="J1" to="J0" priority="-1">
        <lane id="-E0_0" index="0" speed="13.89" length="42.80" shape="51.60,57.20 51.60,100.00"/>
    </edge>
    <edge id="-E1" from="ji2" to="J1" priority="-1">
        <lane id="-E1_0" index="0" speed="13.89" length="42.80" shape="51.60,0.00 51.60,42.80"/>
    </edge>
    <edge id="-E2" from="J1" to="J3" priority="-1">
        <lane id="-E2_0" index="0" speed="13.89" length="42.80" shape="42.80,51.60 0.00,51.60"/>
    </edge>
    <edge id="-E3" from="J4" to="J1" priority="-1">
        <lane id="-E3_0" index="0" speed="13.89" length="42.80" shape="100.00,51.60 57.20,51.60"/>
    </edge>
    <edge id="E0" from="J0" to="J1" priority="-1">
        <lane id="E0_0" index="0" speed="13.89" length="42.80" shape="48.40,100.00 48.40,57.20"/>
    </edge>
    <edge id="E1" from="J1" to="ji2" priority="-1">
        <lane id="E1_0" index="0" speed="13.89" length="42.80" shape="48.40,42.80 48.40,0.00"/>
    </edge>
    <edge id="E2" from="J3" to="J1" priority="-1">
        <lane id="E2_0" index="0" speed="13.89" length="42.80" shape="0.00,48.40 42.80,48.40"/>
    </edge>
    <edge id="E3" from="J1" to="J4" priority="-1">
        <lane id="E3_0" index="0" speed="13.89" length="42.80" shape="57.20,48.40 100.00,48.40"/>
    </edge>

    <tlLogic id="J1" type="static" programID="0" offset="0">
        <phase duration="42" state="GrGr"/>
        <phase duration="3"  state="yryr"/>
        <phase duration="42" state="rGrG"/>
        <phase duration="3"  state="ryry"/>
    </tlLogic>

    <junction id="J0" type="dead_end" x="50.00" y="100.00" incLanes="-E0_0" intLanes="" shape="50.00,100.00 53.20,100.00 50.00,100.00"/>
    <junction id="J1" type="traffic_light" x="50.00" y="50.00" incLanes="E0_0 -E3_0 -E1_0 E2_0" intLanes=":J1_0_0 :J1_1_0 :J1_2_0 :J1_3_0" shape="46.80,57.20 53.20,57.20 53.64,54.98 54.20,54.20 54.98,53.64 55.98,53.31 57.20,53.20 57.20,46.80 54.98,46.36 54.20,45.80 53.64,45.02 53.31,44.02 53.20,42.80 46.80,42.80 46.36,45.02 45.80,45.80 45.02,46.36 44.02,46.69 42.80,46.80 42.80,53.20 45.02,53.64 45.80,54.20 46.36,54.98 46.69,55.98">
        <request index="0" response="0000" foes="1010" cont="0"/>
        <request index="1" response="0101" foes="0101" cont="0"/>
        <request index="2" response="0000" foes="1010" cont="0"/>
        <request index="3" response="0101" foes="0101" cont="0"/>
    </junction>
    <junction id="J3" type="dead_end" x="0.00" y="50.00" incLanes="-E2_0" intLanes="" shape="0.00,50.00 0.00,53.20 0.00,50.00"/>
    <junction id="J4" type="dead_end" x="100.00" y="50.00" incLanes="E3_0" intLanes="" shape="100.00,50.00 100.00,46.80 100.00,50.00"/>
    <junction id="ji2" type="dead_end" x="50.00" y="0.00" incLanes="E1_0" intLanes="" shape="50.00,0.00 46.80,0.00 50.00,0.00"/>

    <connection from="-E1" to="-E0" fromLane="0" toLane="0" via=":J1_2_0" tl="J1" linkIndex="2" dir="s" state="O"/>
    <connection from="-E3" to="-E2" fromLane="0" toLane="0" via=":J1_1_0" tl="J1" linkIndex="1" dir="s" state="o"/>
    <connection from="E0" to="E1" fromLane="0" toLane="0" via=":J1_0_0" tl="J1" linkIndex="0" dir="s" state="O"/>
    <connection from="E2" to="E3" fromLane="0" toLane="0" via=":J1_3_0" tl="J1" linkIndex="3" dir="s" state="o"/>

    <connection from=":J1_0" to="E1" fromLane="0" toLane="0" dir="s" state="M"/>
    <connection from=":J1_1" to="-E2" fromLane="0" toLane="0" dir="s" state="M"/>
    <connection from=":J1_2" to="-E0" fromLane="0" toLane="0" dir="s" state="M"/>
    <connection from=":J1_3" to="E3" fromLane="0" toLane="0" dir="s" state="M"/>

</net>
